<?xml version="1.0" encoding="UTF-8"?>

<!-- generated on 2024-04-02 15:18:42 by Eclipse SUMO netedit Version 1.19.0
<configuration xmlns:xsi="http://www.w3.org/2001/XMLSchema-instance" xsi:noNamespaceSchemaLocation="http://sumo.dlr.de/xsd/neteditConfiguration.xsd">

    <input>
        <sumocfg-file value="C:\Users\Gabe Piano\OneDrive\Documents\GitHub\UV-Express-Driver-Behavior-Modeling\Sumo Configs\Paliparan-Molino\Paliparan-DaangHari.sumocfg"/>
        <additional-files value="C:\Users\Gabe Piano\OneDrive\Documents\GitHub\UV-Express-Driver-Behavior-Modeling\Sumo Configs\Paliparan-Molino\WithStops\WithStopsAdditionals.add.xml"/>
        <route-files value="C:\Users\Gabe Piano\OneDrive\Documents\GitHub\UV-Express-Driver-Behavior-Modeling\Sumo Configs\Paliparan-Molino\WithStops\WithStopsDemand.rou.xml"/>
        <sumo-net-file value="C:\Users\Gabe Piano\OneDrive\Documents\GitHub\UV-Express-Driver-Behavior-Modeling\Sumo Configs\Paliparan-Molino\WithStops\WithStops.net.xml"/>
    </input>

    <output>
        <output-file value="C:\Users\Gabe Piano\OneDrive\Documents\GitHub\UV-Express-Driver-Behavior-Modeling\Sumo Configs\Paliparan-Molino\WithStops\WithStops.net.xml"/>
        <output.street-names value="true"/>
    </output>

    <processing>
        <geometry.min-radius.fix.railways value="false"/>
        <geometry.max-grade.fix value="false"/>
        <offset.disable-normalization value="true"/>
        <lefthand value="0"/>
    </processing>

    <junctions>
        <no-turnarounds value="true"/>
        <junctions.corner-detail value="5"/>
        <junctions.limit-turn-speed value="5.50"/>
        <rectangular-lane-cut value="0"/>
    </junctions>

    <pedestrian>
        <walkingareas value="0"/>
    </pedestrian>

</configuration>
-->

<net version="1.16" junctionCornerDetail="5" limitTurnSpeed="5.50" xmlns:xsi="http://www.w3.org/2001/XMLSchema-instance" xsi:noNamespaceSchemaLocation="http://sumo.dlr.de/xsd/net_file.xsd">

    <location netOffset="-281301.14,-1585163.10" convBoundary="0.00,0.00,2062.07,6521.43" origBoundary="120.971942,14.329884,120.991035,14.388807" projParameter="+proj=utm +zone=51 +ellps=WGS84 +datum=WGS84 +units=m +no_defs"/>

    <type id="cycleway.lane|highway.primary" priority="12" numLanes="2" speed="27.78" disallow="tram rail_urban rail rail_electric rail_fast ship" oneway="0" bikeLaneWidth="1.25"/>
    <type id="cycleway.lane|highway.primary_link" priority="7" numLanes="1" speed="22.22" disallow="tram rail_urban rail rail_electric rail_fast ship" oneway="0" bikeLaneWidth="1.25"/>
    <type id="cycleway.lane|highway.secondary" priority="11" numLanes="1" speed="27.78" disallow="tram rail_urban rail rail_electric rail_fast ship" oneway="0" bikeLaneWidth="1.25"/>
    <type id="highway.footway" priority="1" numLanes="1" speed="2.78" allow="pedestrian" oneway="1" width="2.00"/>
    <type id="highway.path" priority="1" numLanes="1" speed="5.56" allow="pedestrian bicycle" oneway="0" width="2.00"/>
    <type id="highway.pedestrian" priority="1" numLanes="1" speed="2.78" allow="pedestrian" oneway="1" width="2.00"/>
    <type id="highway.primary" priority="12" numLanes="2" speed="27.78" disallow="tram rail_urban rail rail_electric rail_fast ship" oneway="0"/>
    <type id="highway.primary_link" priority="7" numLanes="1" speed="22.22" disallow="tram rail_urban rail rail_electric rail_fast ship" oneway="0"/>
    <type id="highway.secondary" priority="11" numLanes="1" speed="27.78" disallow="tram rail_urban rail rail_electric rail_fast ship" oneway="0"/>
    <type id="highway.secondary_link" priority="6" numLanes="1" speed="22.22" disallow="tram rail_urban rail rail_electric rail_fast ship" oneway="0"/>
    <type id="highway.steps" priority="1" numLanes="1" speed="1.39" allow="pedestrian" oneway="1" width="2.00"/>
    <type id="highway.track" priority="1" numLanes="1" speed="5.56" allow="pedestrian motorcycle moped bicycle" oneway="0"/>

    <edge id=":10036010597_0" function="internal">
        <lane id=":10036010597_0_0" index="0" allow="pedestrian motorcycle moped bicycle" speed="3.65" length="4.67" shape="0.52,4223.14 -0.88,4222.78 -1.51,4222.15 -1.39,4221.26 -0.52,4220.12"/>
    </edge>
    <edge id=":10093671395_0" function="internal">
        <lane id=":10093671395_0_0" index="0" disallow="tram rail_urban rail rail_electric rail_fast ship" speed="16.67" length="5.08" shape="1005.49,1826.50 1006.44,1821.49"/>
        <lane id=":10093671395_0_1" index="1" disallow="tram rail_urban rail rail_electric rail_fast ship" speed="16.67" length="5.08" shape="1008.64,1827.07 1009.58,1822.10"/>
    </edge>
    <edge id=":10093671407_0" function="internal">
        <lane id=":10093671407_0_0" index="0" disallow="tram rail_urban rail rail_electric rail_fast ship" speed="16.67" length="0.30" shape="1024.61,1721.28 1024.66,1721.00"/>
        <lane id=":10093671407_0_1" index="1" disallow="tram rail_urban rail rail_electric rail_fast ship" speed="16.67" length="0.30" shape="1027.76,1721.85 1027.81,1721.55"/>
    </edge>
    <edge id=":10093671408_0" function="internal">
        <lane id=":10093671408_0_0" index="0" disallow="pedestrian tram rail_urban rail rail_electric rail_fast ship" speed="16.67" length="0.20" shape="1045.85,1670.50 1045.83,1670.60"/>
        <lane id=":10093671408_0_1" index="1" disallow="pedestrian tram rail_urban rail rail_electric rail_fast ship" speed="16.67" length="0.20" shape="1042.76,1669.66 1042.69,1669.96"/>
    </edge>
    <edge id=":10093671410_0" function="internal">
        <lane id=":10093671410_0_0" index="0" disallow="tram rail_urban rail rail_electric rail_fast ship" speed="16.67" length="8.72" shape="964.67,2051.26 966.23,2042.69"/>
        <lane id=":10093671410_0_1" index="1" disallow="tram rail_urban rail rail_electric rail_fast ship" speed="16.67" length="8.72" shape="967.82,2051.83 969.37,2043.26"/>
    </edge>
    <edge id=":10093671412_0" function="internal">
        <lane id=":10093671412_0_0" index="0" disallow="tram rail_urban rail rail_electric rail_fast ship" speed="16.67" length="5.00" shape="973.58,2573.88 973.02,2568.91"/>
        <lane id=":10093671412_0_1" index="1" disallow="tram rail_urban rail rail_electric rail_fast ship" speed="16.67" length="5.00" shape="976.76,2573.52 976.20,2568.55"/>
    </edge>
    <edge id=":10099470433_0" function="internal">
        <lane id=":10099470433_0_0" index="0" allow="pedestrian motorcycle moped bicycle" speed="3.65" length="4.67" shape="349.90,4124.79 350.35,4123.42 351.01,4122.82 351.89,4122.99 352.98,4123.93"/>
    </edge>
    <edge id=":1044540155_0" function="internal">
        <lane id=":1044540155_0_0" index="0" disallow="tram rail_urban rail rail_electric rail_fast ship" speed="16.67" length="8.86" shape="1048.69,3574.50 1048.46,3582.78"/>
        <lane id=":1044540155_0_1" index="1" disallow="tram rail_urban rail rail_electric rail_fast ship" speed="16.67" length="8.86" shape="1045.53,3573.28 1045.26,3582.72"/>
    </edge>
    <edge id=":1044540155_2" function="internal">
        <lane id=":1044540155_2_0" index="0" disallow="tram rail_urban rail rail_electric rail_fast ship" speed="16.67" length="11.72" shape="1035.66,3582.56 1036.33,3579.19 1037.85,3577.19 1039.72,3575.25 1041.44,3572.06"/>
        <lane id=":1044540155_2_1" index="1" disallow="tram rail_urban rail rail_electric rail_fast ship" speed="16.67" length="11.72" shape="1038.86,3582.61 1039.52,3579.58 1041.00,3577.82 1042.80,3576.11 1044.42,3573.25"/>
    </edge>
    <edge id=":1044540373_0" function="internal">
        <lane id=":1044540373_0_0" index="0" disallow="pedestrian tram rail_urban rail rail_electric rail_fast ship" speed="16.67" length="0.10" shape="1070.84,1608.86 1070.88,1608.79"/>
        <lane id=":1044540373_0_1" index="1" disallow="pedestrian tram rail_urban rail rail_electric rail_fast ship" speed="16.67" length="0.10" shape="1068.12,1607.18 1068.08,1607.25"/>
    </edge>
    <edge id=":1064598540_0" function="internal">
        <lane id=":1064598540_0_0" index="0" disallow="bicycle tram rail_urban rail rail_electric rail_fast ship" speed="3.87" length="4.44" shape="315.86,1515.53 314.69,1516.26 313.84,1516.29 313.31,1515.63 313.09,1514.27"/>
    </edge>
    <edge id=":1067374811_0" function="internal">
        <lane id=":1067374811_0_0" index="0" disallow="tram rail_urban rail rail_electric rail_fast ship" speed="16.67" length="8.90" shape="959.71,4511.24 958.67,4513.56 957.24,4514.83 955.79,4516.10 954.68,4518.40"/>
        <lane id=":1067374811_0_1" index="1" disallow="tram rail_urban rail rail_electric rail_fast ship" speed="16.67" length="8.90" shape="956.59,4510.53 955.56,4512.83 954.13,4514.08 952.69,4515.32 951.58,4517.60"/>
    </edge>
    <edge id=":1067374811_2" function="internal">
        <lane id=":1067374811_2_0" index="0" disallow="tram rail_urban rail rail_electric rail_fast ship" speed="16.67" length="8.38" shape="945.39,4515.99 945.50,4513.56 944.79,4511.86 944.06,4510.16 944.10,4507.71"/>
        <lane id=":1067374811_2_1" index="1" disallow="tram rail_urban rail rail_electric rail_fast ship" speed="16.67" length="8.38" shape="948.48,4516.80 948.60,4514.34 947.90,4512.62 947.18,4510.89 947.23,4508.41"/>
        <lane id=":1067374811_2_2" index="2" disallow="tram rail_urban rail rail_electric rail_fast ship" speed="16.67" length="8.38" shape="948.48,4516.80 950.35,4509.12"/>
    </edge>
    <edge id=":1067386577_0" function="internal">
        <lane id=":1067386577_0_0" index="0" disallow="tram rail_urban rail rail_electric rail_fast ship" speed="16.67" length="5.25" shape="1597.52,336.33 1594.82,340.90"/>
        <lane id=":1067386577_0_1" index="1" disallow="tram rail_urban rail rail_electric rail_fast ship" speed="16.67" length="5.25" shape="1594.74,334.75 1592.09,339.23"/>
    </edge>
    <edge id=":10763801773_0" function="internal">
        <lane id=":10763801773_0_0" index="0" disallow="pedestrian bicycle tram rail_urban rail rail_electric rail_fast ship" speed="8.31" length="7.93" shape="1456.00,890.65 1456.27,888.79 1456.05,886.94 1455.33,885.09 1454.13,883.25"/>
    </edge>
    <edge id=":10763801773_1" function="internal">
        <lane id=":10763801773_1_0" index="0" disallow="tram rail_urban rail rail_electric rail_fast ship" speed="16.67" length="8.56" shape="1456.00,890.65 1458.25,882.41"/>
        <lane id=":10763801773_1_1" index="1" disallow="tram rail_urban rail rail_electric rail_fast ship" speed="16.67" length="8.56" shape="1459.09,891.51 1461.34,883.24"/>
    </edge>
    <edge id=":10763801782_0" function="internal">
        <lane id=":10763801782_0_0" index="0" disallow="pedestrian bicycle tram rail_urban rail rail_electric rail_fast ship" speed="13.89" length="26.29" shape="1437.73,867.94 1431.35,865.29 1425.35,863.73 1419.15,863.01 1412.21,862.88"/>
    </edge>
    <edge id=":10763801782_1" function="internal">
        <lane id=":10763801782_1_0" index="0" disallow="pedestrian bicycle tram rail_urban rail rail_electric rail_fast ship" speed="16.67" length="26.33" shape="1438.51,863.02 1412.21,862.88"/>
        <lane id=":10763801782_1_1" index="1" disallow="pedestrian bicycle tram rail_urban rail rail_electric rail_fast ship" speed="16.67" length="26.33" shape="1438.54,859.82 1412.18,859.68"/>
    </edge>
    <edge id=":10763801784_0" function="internal">
        <lane id=":10763801784_0_0" index="0" allow="bicycle" speed="11.11" length="5.64" width="1.25" shape="1450.81,882.62 1449.79,881.34 1449.08,880.47 1448.32,879.64 1447.18,878.46"/>
        <lane id=":10763801784_0_1" index="1" disallow="pedestrian bicycle tram rail_urban rail rail_electric rail_fast ship" speed="11.11" length="5.64" shape="1452.55,881.25 1451.50,879.90 1450.75,879.00 1449.96,878.13 1448.77,876.91"/>
    </edge>
    <edge id=":10763801785_0" function="internal">
        <lane id=":10763801785_0_0" index="0" disallow="pedestrian bicycle tram rail_urban rail rail_electric rail_fast ship" speed="13.89" length="20.09" shape="1419.67,847.35 1425.52,847.03 1429.43,845.93 1433.11,843.91 1438.25,840.86"/>
    </edge>
    <edge id=":10763801785_1" function="internal">
        <lane id=":10763801785_1_0" index="0" disallow="pedestrian bicycle tram rail_urban rail rail_electric rail_fast ship" speed="16.67" length="19.93" shape="1419.67,847.35 1439.54,845.83"/>
        <lane id=":10763801785_1_1" index="1" disallow="pedestrian bicycle tram rail_urban rail rail_electric rail_fast ship" speed="16.67" length="19.93" shape="1419.66,850.55 1439.53,849.03"/>
        <lane id=":10763801785_1_2" index="2" disallow="pedestrian bicycle tram rail_urban rail rail_electric rail_fast ship" speed="16.67" length="19.93" shape="1419.66,850.55 1439.52,852.23"/>
    </edge>
    <edge id=":10763801787_0" function="internal">
        <lane id=":10763801787_0_0" index="0" allow="bicycle" speed="12.48" length="10.18" width="1.25" shape="1463.57,819.47 1465.52,817.26 1467.03,815.76 1468.03,814.08 1468.46,811.34"/>
        <lane id=":10763801787_0_1" index="1" disallow="pedestrian bicycle tram rail_urban rail rail_electric rail_fast ship" speed="13.06" length="10.18" shape="1465.35,820.80 1467.27,818.32 1468.49,816.47 1469.16,814.44 1469.43,811.37"/>
    </edge>
    <edge id=":10763801787_2" function="internal">
        <lane id=":10763801787_2_0" index="0" disallow="tram rail_urban rail rail_electric rail_fast ship" speed="16.67" length="10.75" shape="1469.08,822.12 1469.43,811.37"/>
        <lane id=":10763801787_2_1" index="1" disallow="tram rail_urban rail rail_electric rail_fast ship" speed="16.67" length="10.75" shape="1472.28,822.22 1472.63,811.48"/>
    </edge>
    <edge id=":1083006061_0" function="internal">
        <lane id=":1083006061_0_0" index="0" allow="pedestrian bicycle" speed="2.89" length="2.92" width="2.00" shape="528.48,5209.15 527.67,5208.74 527.37,5208.28 527.56,5207.75 528.24,5207.17"/>
    </edge>
    <edge id=":1083006069_0" function="internal">
        <lane id=":1083006069_0_0" index="0" allow="pedestrian bicycle" speed="2.89" length="2.92" width="2.00" shape="570.72,5178.52 571.51,5178.09 572.07,5178.11 572.39,5178.56 572.48,5179.46"/>
    </edge>
    <edge id=":1083006306_0" function="internal">
        <lane id=":1083006306_0_0" index="0" allow="pedestrian bicycle" speed="2.89" length="2.92" width="2.00" shape="639.96,5832.60 640.70,5833.11 640.94,5833.62 640.68,5834.11 639.92,5834.60"/>
    </edge>
    <edge id=":1083006307_0" function="internal">
        <lane id=":1083006307_0_0" index="0" allow="pedestrian bicycle" speed="2.89" length="2.92" width="2.00" shape="610.79,5826.49 610.08,5825.94 609.86,5825.42 610.15,5824.94 610.93,5824.49"/>
    </edge>
    <edge id=":1083006314_0" function="internal">
        <lane id=":1083006314_0_0" index="0" allow="pedestrian bicycle" speed="2.89" length="2.92" width="2.00" shape="640.63,5826.54 641.34,5827.09 641.56,5827.61 641.27,5828.09 640.49,5828.54"/>
    </edge>
    <edge id=":1083006318_0" function="internal">
        <lane id=":1083006318_0_0" index="0" allow="pedestrian bicycle" speed="2.89" length="2.92" width="2.00" shape="610.16,5834.09 609.42,5833.58 609.18,5833.07 609.44,5832.58 610.20,5832.09"/>
    </edge>
    <edge id=":10844865194_0" function="internal">
        <lane id=":10844865194_0_0" index="0" allow="bicycle" speed="16.67" length="5.00" width="1.25" shape="347.26,2366.87 351.88,2368.77"/>
        <lane id=":10844865194_0_1" index="1" disallow="bicycle tram rail_urban rail rail_electric rail_fast ship" speed="16.67" length="5.00" shape="346.41,2368.92 351.03,2370.83"/>
        <lane id=":10844865194_0_2" index="2" disallow="bicycle tram rail_urban rail rail_electric rail_fast ship" speed="16.67" length="5.00" shape="345.19,2371.88 349.81,2373.79"/>
    </edge>
    <edge id=":10844865195_0" function="internal">
        <lane id=":10844865195_0_0" index="0" allow="bicycle" speed="16.67" length="5.00" width="1.25" shape="345.92,2383.13 341.31,2381.20"/>
        <lane id=":10844865195_0_1" index="1" disallow="bicycle tram rail_urban rail rail_electric rail_fast ship" speed="16.67" length="5.00" shape="346.78,2381.08 342.17,2379.15"/>
        <lane id=":10844865195_0_2" index="2" disallow="bicycle tram rail_urban rail rail_electric rail_fast ship" speed="16.67" length="5.00" shape="348.02,2378.13 343.41,2376.20"/>
    </edge>
    <edge id=":1097760047_0" function="internal">
        <lane id=":1097760047_0_0" index="0" disallow="pedestrian tram rail_urban rail rail_electric rail_fast ship" speed="16.67" length="0.28" shape="1034.87,1665.79 1034.93,1665.48"/>
        <lane id=":1097760047_0_1" index="1" disallow="pedestrian tram rail_urban rail rail_electric rail_fast ship" speed="16.67" length="0.28" shape="1038.00,1666.45 1038.05,1666.20"/>
    </edge>
    <edge id=":11118128388_0" function="internal">
        <lane id=":11118128388_0_0" index="0" allow="bicycle" speed="11.11" length="5.34" width="1.25" shape="1491.35,828.89 1492.24,830.13 1492.88,830.95 1493.59,831.72 1494.69,832.77"/>
        <lane id=":11118128388_0_1" index="1" disallow="pedestrian bicycle tram rail_urban rail rail_electric rail_fast ship" speed="11.11" length="5.34" shape="1489.54,830.19 1490.50,831.53 1491.20,832.42 1491.97,833.24 1493.16,834.39"/>
    </edge>
    <edge id=":11118128391_0" function="internal">
        <lane id=":11118128391_0_0" index="0" disallow="pedestrian bicycle tram rail_urban rail rail_electric rail_fast ship" speed="13.89" length="10.81" shape="1480.56,811.62 1480.61,814.77 1481.12,816.91 1482.16,818.91 1483.84,821.65"/>
    </edge>
    <edge id=":11118128391_1" function="internal">
        <lane id=":11118128391_1_0" index="0" disallow="tram rail_urban rail rail_electric rail_fast ship" speed="16.67" length="10.96" shape="1480.56,811.62 1480.02,822.59"/>
        <lane id=":11118128391_1_1" index="1" disallow="tram rail_urban rail rail_electric rail_fast ship" speed="16.67" length="10.96" shape="1477.37,811.51 1476.82,822.43"/>
    </edge>
    <edge id=":11151940159_0" function="internal">
        <lane id=":11151940159_0_0" index="0" disallow="pedestrian bicycle tram rail_urban rail rail_electric rail_fast ship" speed="16.67" length="7.33" shape="1594.04,852.00 1592.07,852.53 1590.97,853.68 1589.89,854.94 1587.95,855.79"/>
        <lane id=":11151940159_0_1" index="1" disallow="pedestrian bicycle tram rail_urban rail rail_electric rail_fast ship" speed="16.67" length="7.33" shape="1594.04,852.00 1592.06,852.04 1590.70,852.12 1589.35,852.30 1587.39,852.64"/>
        <lane id=":11151940159_0_2" index="2" disallow="pedestrian bicycle tram rail_urban rail rail_electric rail_fast ship" speed="16.67" length="7.33" shape="1594.04,852.00 1591.83,851.54 1590.41,850.51 1589.01,849.60 1586.83,849.49"/>
    </edge>
    <edge id=":11151970981_0" function="internal">
        <lane id=":11151970981_0_0" index="0" disallow="tram rail_urban rail rail_electric rail_fast ship" speed="16.67" length="5.15" shape="1481.97,780.57 1481.71,785.71"/>
        <lane id=":11151970981_0_1" index="1" disallow="tram rail_urban rail rail_electric rail_fast ship" speed="16.67" length="5.15" shape="1478.77,780.41 1478.51,785.55"/>
    </edge>
    <edge id=":11151970982_0" function="internal">
        <lane id=":11151970982_0_0" index="0" disallow="tram rail_urban rail rail_electric rail_fast ship" speed="16.67" length="5.03" shape="1470.28,785.30 1470.44,780.27"/>
        <lane id=":11151970982_0_1" index="1" disallow="tram rail_urban rail rail_electric rail_fast ship" speed="16.67" length="5.03" shape="1473.48,785.40 1473.64,780.37"/>
    </edge>
    <edge id=":11302606379_0" function="internal">
        <lane id=":11302606379_0_0" index="0" allow="pedestrian motorcycle moped bicycle" speed="3.65" length="4.67" shape="1503.65,2969.77 1502.67,2968.71 1502.48,2967.84 1503.06,2967.16 1504.41,2966.67"/>
    </edge>
    <edge id=":11302606385_0" function="internal">
        <lane id=":11302606385_0_0" index="0" allow="pedestrian motorcycle moped bicycle" speed="3.65" length="4.67" shape="1796.06,3066.10 1796.60,3067.43 1796.48,3068.32 1795.70,3068.76 1794.26,3068.74"/>
    </edge>
    <edge id=":1294038882_0" function="internal">
        <lane id=":1294038882_0_0" index="0" disallow="tram rail_urban rail rail_electric rail_fast ship" speed="16.67" length="4.98" shape="963.83,2126.78 962.96,2131.67"/>
        <lane id=":1294038882_0_1" index="1" disallow="tram rail_urban rail rail_electric rail_fast ship" speed="16.67" length="4.98" shape="960.69,2126.20 959.81,2131.11"/>
    </edge>
    <edge id=":1294038909_0" function="internal">
        <lane id=":1294038909_0_0" index="0" disallow="tram rail_urban rail rail_electric rail_fast ship" speed="16.67" length="5.09" shape="978.75,2044.95 977.76,2049.99"/>
        <lane id=":1294038909_0_1" index="1" disallow="tram rail_urban rail rail_electric rail_fast ship" speed="16.67" length="5.09" shape="975.60,2044.38 974.63,2049.33"/>
    </edge>
    <edge id=":1294039081_0" function="internal">
        <lane id=":1294039081_0_0" index="0" disallow="tram rail_urban rail rail_electric rail_fast ship" speed="16.67" length="5.01" shape="1009.49,1804.45 1010.39,1799.53"/>
        <lane id=":1294039081_0_1" index="1" disallow="tram rail_urban rail rail_electric rail_fast ship" speed="16.67" length="5.01" shape="1012.63,1805.03 1013.54,1800.10"/>
    </edge>
    <edge id=":1294039110_0" function="internal">
        <lane id=":1294039110_0_0" index="0" disallow="tram rail_urban rail rail_electric rail_fast ship" speed="16.67" length="5.10" shape="1019.09,1823.71 1018.18,1828.73"/>
        <lane id=":1294039110_0_1" index="1" disallow="tram rail_urban rail rail_electric rail_fast ship" speed="16.67" length="5.10" shape="1015.94,1823.14 1015.03,1828.16"/>
    </edge>
    <edge id=":1684763849_0" function="internal">
        <lane id=":1684763849_0_0" index="0" disallow="tram rail_urban rail rail_electric rail_fast ship" speed="3.65" length="4.67" shape="610.65,-1.09 612.05,-1.42 612.91,-1.17 613.22,-0.33 612.99,1.09"/>
    </edge>
    <edge id=":1684781981_0" function="internal">
        <lane id=":1684781981_0_0" index="0" allow="bicycle" speed="8.33" length="3.26" width="1.25" shape="465.25,465.49 464.89,466.37 464.96,467.09 465.05,467.83 464.76,468.75"/>
        <lane id=":1684781981_0_1" index="1" disallow="bicycle tram rail_urban rail rail_electric rail_fast ship" speed="8.33" length="3.26" shape="464.45,464.93 463.93,465.70 463.60,466.25 463.29,466.81 462.84,467.62"/>
    </edge>
    <edge id=":1684781981_2" function="internal">
        <lane id=":1684781981_2_0" index="0" allow="bicycle" speed="8.33" length="3.93" width="1.25" shape="457.25,464.34 458.34,463.72 459.28,463.57 460.16,463.35 461.03,462.54"/>
        <lane id=":1684781981_2_1" index="1" disallow="bicycle tram rail_urban rail rail_electric rail_fast ship" speed="8.33" length="3.93" shape="459.27,465.53 460.09,464.86 460.67,464.42 461.19,463.93 461.83,463.10"/>
    </edge>
    <edge id=":1706575225_0" function="internal">
        <lane id=":1706575225_0_0" index="0" disallow="tram rail_urban rail rail_electric rail_fast ship" speed="13.89" length="0.10" shape="741.85,5665.94 741.85,5665.94"/>
        <lane id=":1706575225_0_1" index="1" disallow="tram rail_urban rail rail_electric rail_fast ship" speed="13.89" length="0.10" shape="738.68,5665.51 738.68,5665.51"/>
    </edge>
    <edge id=":1706575225_2" function="internal">
        <lane id=":1706575225_2_0" index="0" disallow="tram rail_urban rail rail_electric rail_fast ship" speed="13.89" length="0.10" shape="732.33,5664.66 732.33,5664.66"/>
        <lane id=":1706575225_2_1" index="1" disallow="tram rail_urban rail rail_electric rail_fast ship" speed="13.89" length="0.10" shape="735.50,5665.09 735.50,5665.09"/>
    </edge>
    <edge id=":1706575241_0" function="internal">
        <lane id=":1706575241_0_0" index="0" disallow="pedestrian tram rail_urban rail rail_electric rail_fast ship" speed="16.67" length="5.35" shape="687.58,5941.22 688.41,5935.93"/>
    </edge>
    <edge id=":1878710172_0" function="internal">
        <lane id=":1878710172_0_0" index="0" allow="pedestrian motorcycle moped bicycle" speed="3.65" length="4.67" shape="1765.40,5532.07 1765.31,5530.63 1765.70,5529.83 1766.58,5529.66 1767.94,5530.13"/>
    </edge>
    <edge id=":1906518819_0" function="internal">
        <lane id=":1906518819_0_0" index="0" allow="pedestrian motorcycle moped bicycle" speed="3.65" length="4.67" shape="1546.11,4459.32 1544.94,4458.47 1544.57,4457.66 1545.00,4456.87 1546.23,4456.12"/>
    </edge>
    <edge id=":2094281010_0" function="internal">
        <lane id=":2094281010_0_0" index="0" disallow="tram rail_urban rail rail_electric rail_fast ship" speed="16.67" length="8.07" shape="969.99,4466.14 968.24,4474.19"/>
        <lane id=":2094281010_0_1" index="1" disallow="tram rail_urban rail rail_electric rail_fast ship" speed="16.67" length="8.07" shape="966.85,4465.54 965.13,4473.43"/>
        <lane id=":2094281010_0_2" index="2" disallow="tram rail_urban rail rail_electric rail_fast ship" speed="16.67" length="8.07" shape="963.71,4464.93 962.02,4472.67"/>
    </edge>
    <edge id=":2094281010_3" function="internal">
        <lane id=":2094281010_3_0" index="0" disallow="tram rail_urban rail rail_electric rail_fast ship" speed="16.67" length="8.45" shape="952.69,4470.39 953.73,4468.24 955.13,4467.07 956.49,4465.90 957.42,4463.72"/>
        <lane id=":2094281010_3_1" index="1" disallow="tram rail_urban rail rail_electric rail_fast ship" speed="16.67" length="8.45" shape="955.80,4471.15 956.85,4468.95 958.26,4467.76 959.63,4466.55 960.56,4464.33"/>
    </edge>
    <edge id=":252895659_0" function="internal">
        <lane id=":252895659_0_0" index="0" allow="bicycle" speed="16.67" length="3.07" width="1.25" shape="764.43,6209.15 763.50,6209.10 762.87,6208.77 762.24,6208.45 761.31,6208.41"/>
        <lane id=":252895659_0_1" index="1" disallow="bicycle tram rail_urban rail rail_electric rail_fast ship" speed="16.67" length="3.07" shape="764.06,6206.95 761.14,6207.45"/>
        <lane id=":252895659_0_2" index="2" disallow="bicycle tram rail_urban rail rail_electric rail_fast ship" speed="16.67" length="3.07" shape="763.53,6203.80 760.58,6204.30"/>
        <lane id=":252895659_0_3" index="3" disallow="bicycle tram rail_urban rail rail_electric rail_fast ship" speed="16.67" length="3.07" shape="763.00,6200.64 760.01,6201.16"/>
    </edge>
    <edge id=":252895801_0" function="internal">
        <lane id=":252895801_0_0" index="0" allow="bicycle" speed="13.89" length="23.77" width="1.25" shape="945.34,5953.45 940.03,5957.76 936.31,5960.84 933.50,5964.53 930.90,5970.67"/>
        <lane id=":252895801_0_1" index="1" disallow="bicycle tram rail_urban rail rail_electric rail_fast ship" speed="13.89" length="23.77" shape="943.72,5951.92 938.44,5956.46 934.99,5959.89 932.47,5963.94 929.98,5970.35"/>
        <lane id=":252895801_0_2" index="2" disallow="bicycle tram rail_urban rail rail_electric rail_fast ship" speed="13.89" length="23.77" shape="941.38,5949.71 935.81,5954.53 932.20,5958.20 929.57,5962.52 926.95,5969.32"/>
    </edge>
    <edge id=":252895801_3" function="internal">
        <lane id=":252895801_3_0" index="0" allow="bicycle" speed="16.67" length="24.32" width="1.25" shape="937.78,5947.24 930.90,5970.67"/>
        <lane id=":252895801_3_1" index="1" disallow="pedestrian bicycle tram rail_urban rail rail_electric rail_fast ship" speed="16.67" length="24.32" shape="935.66,5946.60 926.95,5969.32"/>
        <lane id=":252895801_3_2" index="2" disallow="pedestrian bicycle tram rail_urban rail rail_electric rail_fast ship" speed="16.67" length="24.32" shape="932.59,5945.67 923.92,5968.29"/>
    </edge>
    <edge id=":252895811_0" function="internal">
        <lane id=":252895811_0_0" index="0" allow="bicycle" speed="11.11" length="6.16" width="1.25" shape="953.29,5947.18 951.85,5948.05 950.88,5948.69 949.98,5949.41 948.70,5950.52"/>
        <lane id=":252895811_0_1" index="1" disallow="bicycle tram rail_urban rail rail_electric rail_fast ship" speed="11.11" length="6.16" shape="952.16,5945.27 950.61,5946.20 949.58,5946.89 948.60,5947.66 947.24,5948.84"/>
        <lane id=":252895811_0_2" index="2" disallow="bicycle tram rail_urban rail rail_electric rail_fast ship" speed="11.11" length="6.16" shape="950.52,5942.52 948.83,5943.54 947.69,5944.29 946.63,5945.13 945.13,5946.43"/>
    </edge>
    <edge id=":27310053_0" function="internal">
        <lane id=":27310053_0_0" index="0" disallow="tram rail_urban rail rail_electric rail_fast ship" speed="16.67" length="3.38" shape="725.21,5725.20 725.56,5724.26 725.82,5723.62 726.03,5722.97 726.27,5722.00"/>
    </edge>
    <edge id=":27310053_1" function="internal">
        <lane id=":27310053_1_0" index="0" disallow="pedestrian bicycle tram rail_urban rail rail_electric rail_fast ship" speed="16.67" length="3.33" shape="725.71,5725.28 726.27,5722.00"/>
    </edge>
    <edge id=":278611055_0" function="internal">
        <lane id=":278611055_0_0" index="0" disallow="tram rail_urban rail rail_electric rail_fast ship" speed="16.67" length="61.71" shape="646.86,6388.74 644.45,6400.92 640.58,6418.80 636.97,6436.71 635.38,6448.94"/>
        <lane id=":278611055_0_1" index="1" disallow="tram rail_urban rail rail_electric rail_fast ship" speed="16.67" length="61.71" shape="643.74,6387.93 641.32,6400.23 637.42,6418.39 633.79,6436.58 632.18,6448.93"/>
    </edge>
    <edge id=":278611055_2" function="internal">
        <lane id=":278611055_2_0" index="0" disallow="pedestrian bicycle tram rail_urban rail rail_electric rail_fast ship" speed="16.67" length="61.77" shape="640.55,6387.46 639.21,6399.85 637.50,6418.17 636.01,6436.51 635.38,6448.94"/>
        <lane id=":278611055_2_1" index="1" disallow="pedestrian bicycle tram rail_urban rail rail_electric rail_fast ship" speed="16.67" length="61.77" shape="637.34,6387.33 636.00,6399.74 634.29,6418.10 632.81,6436.49 632.18,6448.93"/>
    </edge>