<?xml version="1.0" encoding="UTF-8"?>

<!-- generated on 2024-04-02 15:18:38 by Eclipse SUMO netedit Version 1.19.0
-->

<routes xmlns:xsi="http://www.w3.org/2001/XMLSchema-instance" xsi:noNamespaceSchemaLocation="http://sumo.dlr.de/xsd/routes_file.xsd">
    <!-- VTypes -->
     <vType id="UV1" vClass="passenger" guiShape="passenger/van" maxSpeed="10" personCapacity="16" color="1,0,0" boardingDuration="10" 
     laneChangeModel="SL2015" latAlignment="right" lcPushy=".5"/>
    <vType id="bike_bicycle" vClass="bicycle"/>
    <vType id="bus_bus" vClass="bus"/>
    <vType id="motorcycle_motorcycle" vClass="motorcycle"/>
    <vType id="veh_passenger" vClass="passenger"/>
    <!-- Vehicles, persons and containers (sorted by depart) -->
    <trip id="motorcycle0" type="motorcycle_motorcycle" depart="0.00" departLane="best" from="-879177025#0" to="-879177025#0"/>
    <trip id="veh0" type="veh_passenger" depart="0.00" departLane="best" from="665787414#1" to="879172124"/>
    <trip id="UV_Trip1" type="UV1" depart="1.00" departLane="first" departPos="base" departSpeed="5.55" arrivalLane="first" from="1090755561#1" to="642896772">
        <stop busStop="bs_0" duration="15.00"/>
        <stop busStop="bs_1" duration="15.00"/>
        <stop busStop="bs_2" duration="15.00"/>
        <stop busStop="bs_3" duration="15.00"/>
        <stop busStop="bs_4" duration="15.00"/>
        <stop busStop="bs_6" duration="15.00"/>
        <stop busStop="bs_7" duration="15.00" friendlyPos="1"/>
        <stop busStop="bs_8" duration="15.00" friendlyPos="1"/>
        <stop busStop="bs_9" duration="15.00" friendlyPos="1"/>
        <stop busStop="bs_11" duration="15.00" friendlyPos="1"/>
        <stop busStop="bs_10" duration="15.00" friendlyPos="1"/>
    </trip>
    <trip id="veh1" type="veh_passenger" depart="5.24" departLane="best" from="1090755561#1" to="642896772"/>
    <trip id="veh2" type="veh_passenger" depart="10.49" departLane="best" from="767517245" to="660352590"/>
    <trip id="bike1" type="bike_bicycle" depart="11.40" departLane="best" from="-111987010#0" to="1090755562#1"/>
    <trip id="motorcycle1" type="motorcycle_motorcycle" depart="14.96" departLane="best" from="580815653#2" to="918082981-AddedOnRampEdge"/>
    <trip id="bus1" type="bus_bus" depart="15.73" departLane="best" from="114213957#1" to="1090755562#1"/>
    <trip id="veh4" type="veh_passenger" depart="20.98" departLane="best" departSpeed="max" from="366882273" to="-544489067#0"/>
    <trip id="veh5" type="veh_passenger" depart="26.22" departLane="best" from="1103029863#2" to="540589202"/>
    <trip id="motorcycle2" type="motorcycle_motorcycle" depart="29.93" departLane="best" from="870991324#0" to="642896772"/>
    <trip id="veh6" type="veh_passenger" depart="31.47" departLane="best" departSpeed="max" from="665787416" to="561748189"/>
    <trip id="bike3" type="bike_bicycle" depart="34.19" departLane="best" from="-879172095" to="-872215578"/>
    <trip id="veh7" type="veh_passenger" depart="36.71" departLane="best" from="662913537#0" to="624604434#1"/>
    <trip id="veh8" type="veh_passenger" depart="41.96" departLane="best" departSpeed="max" from="870991315#0" to="111987010#0"/>
    <trip id="motorcycle3" type="motorcycle_motorcycle" depart="44.89" departLane="best" from="690613625#1" to="690613617"/>
    <trip id="bike4" type="bike_bicycle" depart="45.59" departLane="best" departSpeed="max" from="366882273" to="-544489067#0"/>
    <trip id="bus3" type="bus_bus" depart="47.20" departLane="best" from="879172124" to="879172096"/>
    <trip id="veh9" type="veh_passenger" depart="47.20" departLane="best" departSpeed="max" from="870991315#0" to="665214718#1"/>
    <trip id="veh10" type="veh_passenger" depart="52.45" departLane="best" from="1197045457" to="1054125801#1"/>
    <trip id="veh11" type="veh_passenger" depart="57.69" departLane="best" from="918082986" to="114213935#0"/>
    <trip id="motorcycle4" type="motorcycle_motorcycle" depart="59.85" departLane="best" from="1198531265" to="1090755562#1"/>
    <trip id="veh12" type="veh_passenger" depart="62.93" departLane="best" from="-879177024#0" to="-879177025#1"/>
    <trip id="veh13" type="veh_passenger" depart="68.18" departLane="best" from="870991324#0" to="624604436"/>
    <trip id="bike6" type="bike_bicycle" depart="68.38" departLane="best" from="872215569" to="1072529522#0"/>
    <trip id="veh14" type="veh_passenger" depart="73.42" departLane="best" departSpeed="max" from="870991315#0" to="690613619"/>
    <trip id="motorcycle5" type="motorcycle_motorcycle" depart="74.82" departLane="best" from="111987010#0" to="879177024#1"/>
    <trip id="bus5" type="bus_bus" depart="78.67" departLane="best" from="1103029863#2" to="540589200"/>
    <trip id="veh15" type="veh_passenger" depart="78.67" departLane="best" departSpeed="max" from="580815653#0" to="918082981"/>
    <trip id="bike7" type="bike_bicycle" depart="79.78" departLane="best" from="665214718#1" to="624604434#1"/>
    <trip id="motorcycle6" type="motorcycle_motorcycle" depart="89.78" departLane="best" from="1072529522#0" to="690613619"/>
    <trip id="veh18" type="veh_passenger" depart="94.40" departLane="best" from="870991328#1" to="574917579#1"/>
    <trip id="veh19" type="veh_passenger" depart="99.65" departLane="best" from="1111218371#1" to="1111218371#2"/>
    <trip id="bike9" type="bike_bicycle" depart="102.57" departLane="best" from="870991319#1-AddedOffRampEdge" to="-111987010#0"/>
    <trip id="motorcycle7" type="motorcycle_motorcycle" depart="104.74" departLane="best" departSpeed="max" from="993441705" to="651079990"/>
    <trip id="veh20" type="veh_passenger" depart="104.89" departLane="best" from="-872215578" to="1103029833#0"/>
    <trip id="veh21" type="veh_passenger" depart="110.13" departLane="best" from="-879177025#0" to="1103029866"/>
    <trip id="bike10" type="bike_bicycle" depart="113.97" departLane="best" from="870991319#1-AddedOffRampEdge" to="684278129"/>
    <trip id="veh22" type="veh_passenger" depart="115.38" departLane="best" from="665214718#1" to="1157435279#0"/>
    <trip id="motorcycle8" type="motorcycle_motorcycle" depart="119.70" departLane="best" from="870991324#1" to="775185678"/>
    <trip id="veh23" type="veh_passenger" depart="120.62" departLane="best" from="158466192#1" to="1090755562#1"/>
    <trip id="bus8" type="bus_bus" depart="125.87" departLane="best" from="870991316" to="111987075"/>
    <trip id="motorcycle9" type="motorcycle_motorcycle" depart="134.67" departLane="best" from="872215569" to="111987010#1"/>
    <trip id="veh26" type="veh_passenger" depart="136.36" departLane="best" from="1090755561#1" to="690613619"/>
    <trip id="bike12" type="bike_bicycle" depart="136.76" departLane="best" from="918082984" to="114213935#2"/>
    <trip id="bus9" type="bus_bus" depart="141.60" departLane="best" from="870991316" to="1103029866"/>
    <trip id="veh28" type="veh_passenger" depart="146.85" departLane="best" from="624604434#1" to="661088487"/>
    <trip id="bike13" type="bike_bicycle" depart="148.16" departLane="best" from="879177025#0" to="111987010#1"/>
    <trip id="veh29" type="veh_passenger" depart="152.09" departLane="best" from="870991319#1-AddedOffRampEdge" to="863227697"/>
    <trip id="bus10" type="bus_bus" depart="157.34" departLane="best" from="1198531266" to="1054125801#1"/>
    <trip id="motorcycle11" type="motorcycle_motorcycle" depart="164.59" departLane="best" from="628567782#0" to="1103029863#1"/>
    <trip id="veh32" type="veh_passenger" depart="167.82" departLane="best" from="1103029863#1" to="879177024#1"/>
    <trip id="bike15" type="bike_bicycle" depart="170.95" departLane="best" from="870991319#1-AddedOffRampEdge" to="708496109"/>
    <trip id="bus11" type="bus_bus" depart="173.07" departLane="best" departSpeed="max" from="918082993" to="-111987075"/>
    <trip id="motorcycle12" type="motorcycle_motorcycle" depart="179.56" departLane="best" from="651079971" to="878958165#1"/>
    <trip id="bike16" type="bike_bicycle" depart="182.34" departLane="best" from="580815653#2" to="918082982"/>
    <trip id="veh35" type="veh_passenger" depart="183.56" departLane="best" from="879177024#1" to="183690512#3"/>
    <trip id="bus12" type="bus_bus" depart="188.80" departLane="best" from="870991316" to="684278129"/>
    <trip id="veh37" type="veh_passenger" depart="194.05" departLane="best" from="624604434#1" to="1103029862#1"/>
    <trip id="motorcycle13" type="motorcycle_motorcycle" depart="194.52" departLane="best" from="574917579#1" to="1103029833#0"/>
    <trip id="veh38" type="veh_passenger" depart="199.29" departLane="best" from="628567807" to="878958165#1"/>
    <trip id="veh39" type="veh_passenger" depart="204.54" departLane="best" departSpeed="max" from="366882273" to="1090755562#1"/>
    <trip id="bike18" type="bike_bicycle" depart="205.14" departLane="best" from="870991324#1" to="651079972"/>
    <trip id="motorcycle14" type="motorcycle_motorcycle" depart="209.48" departLane="best" from="111987010#1" to="690613617"/>
    <trip id="veh40" type="veh_passenger" depart="209.78" departLane="best" departSpeed="max" from="993441705" to="540589202"/>
    <trip id="veh41" type="veh_passenger" depart="215.02" departLane="best" from="111987010#1" to="690613619"/>
    <trip id="bus14" type="bus_bus" depart="220.27" departLane="best" from="894843877#2" to="-642893603"/>
    <trip id="veh42" type="veh_passenger" depart="220.27" departLane="best" from="879177025#1" to="642896772"/>
    <trip id="motorcycle15" type="motorcycle_motorcycle" depart="224.45" departLane="best" departSpeed="max" from="993441705" to="561748189"/>
    <trip id="veh43" type="veh_passenger" depart="225.51" departLane="best" departSpeed="max" from="864498341" to="1198531266"/>
    <trip id="bike20" type="bike_bicycle" depart="227.93" departLane="best" from="-690613619" to="684278128"/>
    <trip id="bus15" type="bus_bus" depart="236.00" departLane="best" from="-872215578" to="1103029833#0"/>
    <trip id="veh45" type="veh_passenger" depart="236.00" departLane="best" departSpeed="max" from="993441705" to="-872215578"/>
    <trip id="motorcycle16" type="motorcycle_motorcycle" depart="239.41" departLane="best" from="918082989" to="870991328#0"/>
    <trip id="veh46" type="veh_passenger" depart="241.25" departLane="best" departSpeed="max" from="918082993" to="871213663#0"/>
    <trip id="veh47" type="veh_passenger" depart="246.49" departLane="best" from="111987075" to="684278129"/>
    <trip id="bus16" type="bus_bus" depart="251.74" departLane="best" from="-879177025#1" to="1103029863#2"/>
    <trip id="veh48" type="veh_passenger" depart="251.74" departLane="best" from="683268239" to="544489112"/>
    <trip id="motorcycle17" type="motorcycle_motorcycle" depart="254.37" departLane="best" from="111987075" to="690613617"/>
    <trip id="veh50" type="veh_passenger" depart="262.23" departLane="best" from="918082989" to="158466192#1"/>
    <trip id="bus17" type="bus_bus" depart="267.47" departLane="best" departSpeed="max" from="665787416" to="1154677194#1"/>
    <trip id="veh51" type="veh_passenger" depart="267.47" departLane="best" from="540589200" to="879177025#0"/>
    <trip id="motorcycle18" type="motorcycle_motorcycle" depart="269.34" departLane="best" from="684278129" to="561748193"/>
    <trip id="veh52" type="veh_passenger" depart="272.71" departLane="best" from="-642893603" to="1103029862#1"/>
    <trip id="veh53" type="veh_passenger" depart="277.96" departLane="best" from="574917570#1" to="1072529521"/>
    <trip id="veh54" type="veh_passenger" depart="283.20" departLane="best" from="-690613620#0" to="-642893603"/>
    <trip id="motorcycle19" type="motorcycle_motorcycle" depart="284.30" departLane="best" from="427551889#1-AddedOffRampEdge" to="894843877#1"/>
    <trip id="veh55" type="veh_passenger" depart="288.45" departLane="best" departSpeed="max" from="114216316" to="642896772"/>
    <trip id="veh56" type="veh_passenger" depart="293.69" departLane="best" from="660352582#1" to="1054125801#0"/>
    <trip id="bus19" type="bus_bus" depart="298.94" departLane="best" from="114213938" to="879172096"/>
    <trip id="motorcycle20" type="motorcycle_motorcycle" depart="299.26" departLane="best" from="-111987010#0" to="-111987075"/>
    <trip id="veh58" type="veh_passenger" depart="304.18" departLane="best" departSpeed="max" from="864498341" to="544489068#1"/>
    <trip id="bike27" type="bike_bicycle" depart="307.71" departLane="best" from="665214718#1" to="651079971"/>
    <trip id="veh59" type="veh_passenger" depart="309.43" departLane="best" departSpeed="max" from="-540589202" to="878958179#2"/>
    <trip id="motorcycle21" type="motorcycle_motorcycle" depart="314.22" departLane="best" from="879172096" to="427551889#1-AddedOffRampEdge"/>
    <trip id="veh60" type="veh_passenger" depart="314.67" departLane="best" from="872215569" to="870991319#0"/>
    <trip id="bike28" type="bike_bicycle" depart="319.10" departLane="best" from="1054125801#0" to="708496109"/>
    <trip id="veh61" type="veh_passenger" depart="319.92" departLane="best" from="1197045457" to="690613620#1"/>
    <trip id="veh62" type="veh_passenger" depart="325.16" departLane="best" from="872215569" to="879177024#1"/>
    <trip id="bus21" type="bus_bus" depart="330.40" departLane="best" from="1103029814#1" to="684278129"/>
    <trip id="motorcycle23" type="motorcycle_motorcycle" depart="344.15" departLane="best" from="544489068#1" to="574917570#1"/>
    <trip id="veh66" type="veh_passenger" depart="346.14" departLane="best" departSpeed="max" from="366882273" to="1090755562#1"/>
    <trip id="veh67" type="veh_passenger" depart="351.38" departLane="best" departSpeed="max" from="580815653#0" to="-690613619"/>
    <trip id="bike31" type="bike_bicycle" depart="353.29" departLane="best" from="624604436" to="683268248#1"/>
    <trip id="motorcycle24" type="motorcycle_motorcycle" depart="359.11" departLane="best" from="624604434#1" to="690613619"/>
    <trip id="veh69" type="veh_passenger" depart="361.87" departLane="best" departSpeed="max" from="993441705" to="651079954#1"/>
    <trip id="veh70" type="veh_passenger" depart="367.12" departLane="best" from="366952449#1" to="540589202"/>
    <trip id="veh71" type="veh_passenger" depart="372.36" departLane="best" from="1033118917#1" to="1090755562#1"/>
    <trip id="motorcycle25" type="motorcycle_motorcycle" depart="374.08" departLane="best" departSpeed="max" from="993441705" to="651080031"/>
    <trip id="bus24" type="bus_bus" depart="377.60" departLane="best" from="1103029863#1" to="879177024#1"/>
    <trip id="veh72" type="veh_passenger" depart="377.60" departLane="best" from="1197045457" to="624604434#1"/>
    <trip id="bike34" type="bike_bicycle" depart="387.48" departLane="best" from="114213957#1" to="1103029858#1"/>
    <trip id="veh74" type="veh_passenger" depart="388.09" departLane="best" from="690613620#1" to="642896772"/>
    <trip id="motorcycle26" type="motorcycle_motorcycle" depart="389.04" departLane="best" from="1033118917#1" to="1103029833#0"/>
    <trip id="veh76" type="veh_passenger" depart="398.58" departLane="best" from="894843877#2" to="-872215578"/>
    <trip id="bike35" type="bike_bicycle" depart="398.88" departLane="best" from="1103029833#1" to="870991328#0"/>
    <trip id="veh78" type="veh_passenger" depart="409.07" departLane="best" from="918082981" to="574917575#1"/>
    <trip id="motorcycle28" type="motorcycle_motorcycle" depart="418.97" departLane="best" from="1103029862#1" to="1103029833#0"/>
    <trip id="veh80" type="veh_passenger" depart="419.56" departLane="best" departSpeed="max" from="870991315#0" to="1072529521"/>
    <trip id="bus27" type="bus_bus" depart="424.81" departLane="best" from="894843877#2" to="183690512#3"/>
    <trip id="veh81" type="veh_passenger" depart="424.81" departLane="best" from="-879177024#0" to="158326567#0"/>
    <trip id="veh82" type="veh_passenger" depart="430.05" departLane="best" departSpeed="max" from="366882273" to="183690512#3"/>
    <trip id="bike38" type="bike_bicycle" depart="433.07" departLane="best" from="879177025#1" to="366952449#1"/>
    <trip id="motorcycle29" type="motorcycle_motorcycle" depart="433.93" departLane="best" from="1103029862#1" to="878958179#0"/>
    <trip id="veh83" type="veh_passenger" depart="435.29" departLane="best" from="758880904#1" to="660352585"/>
    <trip id="veh84" type="veh_passenger" depart="440.54" departLane="best" departSpeed="max" from="993441705" to="-879177025#1"/>
    <trip id="bike39" type="bike_bicycle" depart="444.47" departLane="best" from="1103029866" to="1103029835#1"/>
    <trip id="veh85" type="veh_passenger" depart="445.78" departLane="best" departSpeed="max" from="366882273" to="114213935#0"/>
    <trip id="motorcycle30" type="motorcycle_motorcycle" depart="448.89" departLane="best" from="894843877#2" to="624604434#1"/>
    <trip id="veh86" type="veh_passenger" depart="451.03" departLane="best" from="870991328#1" to="1103029835#2"/>
    <trip id="bus29" type="bus_bus" depart="456.27" departLane="best" from="660352582#1" to="878958165#1"/>
    <trip id="veh87" type="veh_passenger" depart="456.27" departLane="best" from="1103029835#1" to="183690512#3"/>
    <trip id="veh88" type="veh_passenger" depart="461.52" departLane="best" departSpeed="max" from="366882273" to="1103029866"/>
    <trip id="motorcycle31" type="motorcycle_motorcycle" depart="463.86" departLane="best" departSpeed="max" from="366882273" to="366949696"/>
    <trip id="veh89" type="veh_passenger" depart="466.76" departLane="best" from="-879177024#0" to="878958179#1"/>
    <trip id="bus30" type="bus_bus" depart="472.01" departLane="best" departSpeed="max" from="366882273" to="1090755562#1"/>
    <trip id="veh90" type="veh_passenger" depart="472.01" departLane="best" from="427551889#1" to="871213663#0"/>
    <trip id="veh91" type="veh_passenger" depart="477.25" departLane="best" from="580815653#2" to="-690613620#0"/>
    <trip id="bike42" type="bike_bicycle" depart="478.66" departLane="best" from="158466192#1" to="1090755562#1"/>
    <trip id="motorcycle32" type="motorcycle_motorcycle" depart="478.82" departLane="best" from="767517245" to="708496109"/>
    <trip id="veh92" type="veh_passenger" depart="482.49" departLane="best" departSpeed="max" from="993441705" to="870991319#1-AddedOffRampEdge"/>
    <trip id="bus31" type="bus_bus" depart="487.74" departLane="best" departSpeed="max" from="993441705" to="540589200"/>
    <trip id="veh93" type="veh_passenger" depart="487.74" departLane="best" departSpeed="max" from="918082993" to="878958179#2"/>
    <trip id="bike43" type="bike_bicycle" depart="490.05" departLane="best" departSpeed="max" from="993441705" to="561748193"/>
    <trip id="veh94" type="veh_passenger" depart="492.98" departLane="best" from="870991323" to="1072529521"/>
    <trip id="motorcycle33" type="motorcycle_motorcycle" depart="493.78" departLane="best" from="366952449#1" to="870991328#0"/>
    <trip id="veh95" type="veh_passenger" depart="498.23" departLane="best" from="561748193" to="1090755562#1"/>
    <trip id="bike44" type="bike_bicycle" depart="501.45" departLane="best" from="879177025#0" to="684278128"/>
    <trip id="bus32" type="bus_bus" depart="503.47" departLane="best" from="-879177024#0" to="-642893603"/>
    <trip id="veh96" type="veh_passenger" depart="503.47" departLane="best" departSpeed="max" from="366882273" to="-690613625#0"/>
    <trip id="motorcycle34" type="motorcycle_motorcycle" depart="508.75" departLane="best" from="624604436" to="690613619"/>
    <trip id="bus33" type="bus_bus" depart="519.21" departLane="best" from="1033118917#0" to="642896772"/>
    <trip id="veh99" type="veh_passenger" depart="519.21" departLane="best" from="624604434#1" to="-684278128"/>
    <trip id="motorcycle35" type="motorcycle_motorcycle" depart="523.71" departLane="best" departSpeed="max" from="993441705" to="870991319#1-AddedOffRampEdge"/>
    <trip id="bike46" type="bike_bicycle" depart="524.24" departLane="best" from="870991319#0" to="183689805#1"/>
    <trip id="veh100" type="veh_passenger" depart="524.45" departLane="best" from="1033158925#1" to="1111218371#2"/>
    <trip id="veh101" type="veh_passenger" depart="529.70" departLane="best" departSpeed="max" from="918082993" to="574917579#1"/>
    <trip id="veh102" type="veh_passenger" depart="534.94" departLane="best" departSpeed="max" from="580815653#0" to="-690613625#1"/>
    <trip id="motorcycle36" type="motorcycle_motorcycle" depart="538.67" departLane="best" from="870991328#0" to="1054125801#1"/>
    <trip id="veh104" type="veh_passenger" depart="545.43" departLane="best" from="574917575#1" to="870991324#1"/>
    <trip id="bike48" type="bike_bicycle" depart="547.03" departLane="best" departSpeed="max" from="993441705" to="574917575#1"/>
    <trip id="veh105" type="veh_passenger" depart="550.67" departLane="best" from="1054125801#0" to="-879177025#1"/>
    <trip id="motorcycle37" type="motorcycle_motorcycle" depart="553.63" departLane="best" from="918082984" to="690613617"/>
    <trip id="veh106" type="veh_passenger" depart="555.92" departLane="best" from="544489067#1" to="1072529521"/>
    <trip id="bike49" type="bike_bicycle" depart="558.43" departLane="best" from="-918082989" to="-642893603"/>
    <trip id="veh107" type="veh_passenger" depart="561.16" departLane="best" from="1111218372#0" to="1033118918"/>
    <trip id="bus36" type="bus_bus" depart="566.41" departLane="best" departSpeed="max" from="993441705" to="540589202"/>
    <trip id="motorcycle38" type="motorcycle_motorcycle" depart="568.60" departLane="best" from="918082986" to="624604435#0"/>
    <trip id="bike50" type="bike_bicycle" depart="569.83" departLane="best" from="111987075" to="690613620#1"/>
    <trip id="bike51" type="bike_bicycle" depart="581.22" departLane="best" from="-684278128" to="574917579#1"/>
    <trip id="bus37" type="bus_bus" depart="582.14" departLane="best" departSpeed="max" from="-540589202" to="683268248#1"/>
    <trip id="veh111" type="veh_passenger" depart="582.14" departLane="best" departSpeed="max" from="580815653#0" to="-879172095"/>
    <trip id="motorcycle39" type="motorcycle_motorcycle" depart="583.56" departLane="best" from="624604434#1" to="708496109"/>
    <trip id="veh112" type="veh_passenger" depart="587.38" departLane="best" from="1103029858#1" to="683268248#1"/>
    <trip id="bus38" type="bus_bus" depart="597.87" departLane="best" from="-690613625#1" to="-872215578"/>
    <trip id="veh114" type="veh_passenger" depart="597.87" departLane="best" departSpeed="max" from="665787416" to="1111218371#2"/>
    <trip id="motorcycle40" type="motorcycle_motorcycle" depart="598.52" departLane="best" from="879177024#1" to="624604436"/>
    <trip id="veh116" type="veh_passenger" depart="608.36" departLane="best" from="690613625#1" to="183690512#3"/>
    <trip id="motorcycle41" type="motorcycle_motorcycle" depart="613.49" departLane="best" from="1054125801#0" to="894843877#2"/>
    <trip id="bus39" type="bus_bus" depart="613.61" departLane="best" from="114213938" to="642896772"/>
    <trip id="veh117" type="veh_passenger" depart="613.61" departLane="best" departSpeed="max" from="993441705" to="-918082989"/>
    <trip id="bike54" type="bike_bicycle" depart="615.41" departLane="best" from="427551889#1-AddedOffRampEdge" to="895757842"/>
    <trip id="veh118" type="veh_passenger" depart="618.85" departLane="best" from="-690613625#1" to="1090755562#1"/>
    <trip id="motorcycle42" type="motorcycle_motorcycle" depart="628.45" departLane="best" from="1103029863#1" to="1033118917#1"/>
    <trip id="bus40" type="bus_bus" depart="629.34" departLane="best" from="1033118917#0" to="1203000717"/>
    <trip id="veh120" type="veh_passenger" depart="629.34" departLane="best" from="878958179#0" to="878958165#1"/>
    <trip id="veh121" type="veh_passenger" depart="634.59" departLane="best" from="158466192#1" to="1072529521"/>
    <trip id="bike56" type="bike_bicycle" depart="638.21" departLane="best" from="574917570#1" to="1054125801#1"/>
    <trip id="bus41" type="bus_bus" depart="645.07" departLane="best" from="544489068#1" to="879177025#1"/>
    <trip id="veh123" type="veh_passenger" depart="645.07" departLane="best" from="660352585" to="918082982"/>
    <trip id="bike57" type="bike_bicycle" depart="649.60" departLane="best" from="-879177025#0" to="878958165#1"/>
    <trip id="veh124" type="veh_passenger" depart="650.32" departLane="best" departSpeed="max" from="665787416" to="111987075"/>
    <trip id="veh125" type="veh_passenger" depart="655.56" departLane="best" departSpeed="max" from="870991315#0" to="1111218371#2"/>
    <trip id="bus42" type="bus_bus" depart="660.81" departLane="best" departSpeed="max" from="580815653#0" to="1072529521"/>
    <trip id="veh126" type="veh_passenger" depart="660.81" departLane="best" departSpeed="max" from="665787416" to="879172124"/>
    <trip id="veh127" type="veh_passenger" depart="666.05" departLane="best" from="1033158919#1" to="1033118917#1"/>
    <trip id="veh128" type="veh_passenger" depart="671.30" departLane="best" from="879177025#1" to="561748193"/>
    <trip id="bus43" type="bus_bus" depart="676.54" departLane="best" departSpeed="max" from="114216316" to="642896772"/>
    <trip id="veh131" type="veh_passenger" depart="687.03" departLane="best" from="665214718#1" to="1103029862#1"/>
    <trip id="motorcycle46" type="motorcycle_motorcycle" depart="688.30" departLane="best" from="690613625#1" to="183690512#3"/>
    <trip id="bus44" type="bus_bus" depart="692.28" departLane="best" departSpeed="max" from="864498341" to="544489067#1"/>
    <trip id="veh132" type="veh_passenger" depart="692.28" departLane="best" from="561748193" to="878958165#1"/>
    <trip id="bike61" type="bike_bicycle" depart="695.19" departLane="best" from="870991315#1" to="574917575#1"/>
    <trip id="veh133" type="veh_passenger" depart="697.52" departLane="best" from="870991323" to="-879177025#0"/>
    <trip id="veh134" type="veh_passenger" depart="702.76" departLane="best" departSpeed="max" from="366882273" to="1103029866"/>
    <trip id="motorcycle47" type="motorcycle_motorcycle" depart="703.27" departLane="best" departSpeed="max" from="993441705" to="-918082989"/>
    <trip id="bike62" type="bike_bicycle" depart="706.59" departLane="best" from="-111987010#0" to="114213935#0"/>
    <trip id="bus45" type="bus_bus" depart="708.01" departLane="best" departSpeed="max" from="870991315#0" to="540589202"/>
    <trip id="veh135" type="veh_passenger" depart="708.01" departLane="best" from="111987010#0" to="775185677"/>
    <trip id="veh136" type="veh_passenger" depart="713.25" departLane="best" from="665214718#1" to="1103029862#1"/>
    <trip id="bike63" type="bike_bicycle" depart="717.98" departLane="best" from="879172124" to="879177025#1"/>
    <trip id="veh137" type="veh_passenger" depart="718.50" departLane="best" from="775185677" to="561748193"/>
    <trip id="bus46" type="bus_bus" depart="723.74" departLane="best" departSpeed="max" from="-540589202" to="878958179#2"/>
    <trip id="veh138" type="veh_passenger" depart="723.74" departLane="best" departSpeed="max" from="366882273" to="-111987075"/>
    <trip id="veh139" type="veh_passenger" depart="728.99" departLane="best" from="-690613625#1" to="878958165#1"/>
    <trip id="motorcycle49" type="motorcycle_motorcycle" depart="733.19" departLane="best" from="870991324#0" to="683268248#1"/>
    <trip id="veh140" type="veh_passenger" depart="734.23" departLane="best" from="879172096" to="561748189"/>
    <trip id="veh142" type="veh_passenger" depart="744.72" departLane="best" from="1197045457" to="878958165#1"/>
    <trip id="motorcycle50" type="motorcycle_motorcycle" depart="748.15" departLane="best" from="662913537#0" to="1103029863#1"/>
    <trip id="veh143" type="veh_passenger" depart="749.96" departLane="best" departSpeed="max" from="864498341" to="871213663#0"/>
    <trip id="bike66" type="bike_bicycle" depart="752.17" departLane="best" from="878958179#1" to="895757842"/>
    <trip id="bus48" type="bus_bus" depart="755.21" departLane="best" from="1197045457" to="690613619"/>
    <trip id="veh145" type="veh_passenger" depart="760.45" departLane="best" departSpeed="max" from="864498341" to="878958165#1"/>
    <trip id="motorcycle51" type="motorcycle_motorcycle" depart="763.12" departLane="best" from="894843877#2" to="-879177024#0"/>
    <trip id="bike67" type="bike_bicycle" depart="763.57" departLane="best" from="-879177024#0" to="544489068#1"/>
    <trip id="veh147" type="veh_passenger" depart="770.94" departLane="best" from="1033158925#1" to="878958179#2"/>
    <trip id="veh148" type="veh_passenger" depart="776.19" departLane="best" from="870991316" to="918082981-AddedOnRampEdge"/>
    <trip id="motorcycle52" type="motorcycle_motorcycle" depart="778.08" departLane="best" from="544489067#1" to="872215569"/>
    <trip id="veh149" type="veh_passenger" depart="781.43" departLane="best" departSpeed="max" from="870991315#0" to="878958165#1"/>
    <trip id="bike69" type="bike_bicycle" depart="786.36" departLane="best" departSpeed="max" from="870991315#0" to="1033118917#0"/>
    <trip id="bus50" type="bus_bus" depart="786.68" departLane="best" from="-690613625#0" to="758880904#1"/>
    <trip id="veh150" type="veh_passenger" depart="786.68" departLane="best" departSpeed="max" from="-540589202" to="690613620#1"/>
    <trip id="motorcycle53" type="motorcycle_motorcycle" depart="793.04" departLane="best" from="-544489067#0" to="574917570#1"/>
    <trip id="veh152" type="veh_passenger" depart="797.17" departLane="best" departSpeed="max" from="870991315#0" to="1103029863#1"/>
    <trip id="bike70" type="bike_bicycle" depart="797.76" departLane="best" from="544489112" to="624604434#1"/>
    <trip id="bus51" type="bus_bus" depart="802.41" departLane="best" departSpeed="max" from="864498341" to="1033158919#1"/>
    <trip id="veh153" type="veh_passenger" depart="802.41" departLane="best" departSpeed="max" from="864498341" to="1033118917#0"/>