<?xml version="1.0" encoding="UTF-8"?>

<!-- generated on 2024-04-02 15:18:07 by Eclipse SUMO netedit Version 1.19.0
-->

<additional xmlns:xsi="http://www.w3.org/2001/XMLSchema-instance" xsi:noNamespaceSchemaLocation="http://sumo.dlr.de/xsd/additional_file.xsd">
    <!-- StoppingPlaces -->
    <busStop id="bs_0" lane="1090755561#1_0" startPos="8.54" endPos="18.54"/>
    <busStop id="bs_1" lane="1090755561#1_0" startPos="101.61" endPos="111.61"/>
    <busStop id="bs_10" lane="642896772_0" startPos="0.90" endPos="10.90"/>
    <busStop id="bs_11" lane="366952449#1_0" startPos="97.13" endPos="107.13"/>
    <busStop id="bs_2" lane="1090755561#1_0" startPos="414.22" endPos="424.22"/>
    <busStop id="bs_3" lane="114213938_0" startPos="35.65" endPos="45.65"/>
    <busStop id="bs_4" lane="1103029833#1_0" startPos="0.73"/>
    <busStop id="bs_5" lane="1103029814#1_0" startPos="134.84" endPos="144.84"/>
    <busStop id="bs_6" lane="114213957#1_0" startPos="17.16" endPos="27.16"/>
    <busStop id="bs_7" lane="662913537#0_0" startPos="48.07" endPos="58.07"/>
    <busStop id="bs_8" lane="690613620#1_0" startPos="336.03" endPos="346.03"/>
    <busStop id="bs_9" lane="879172096_0" startPos="15.49" endPos="25.49"/>
    <!-- Shapes -->
    <poly id="1001714080" type="leisure.sports_centre" color="207,245,201" fill="1" layer="-2.00" shape="1099.298166,4137.795427 1115.478226,4137.499041 1114.394212,4080.138516 1098.214115,4080.434898 1099.298166,4137.795427"/>
    <poly id="1001714080#1" type="sport.swimming" color="79,230,125" fill="1" layer="-2.00" shape="1099.298166,4137.795427 1115.478226,4137.499041 1114.394212,4080.138516 1098.214115,4080.434898 1099.298166,4137.795427"/>
    <poly id="1001714082" type="landuse.commercial" color="209,209,204" fill="0" layer="-3.00" shape="1155.034955,3241.832056 1158.382604,3322.468236 1144.072232,3339.248686"/>
    <poly id="1001714086" type="landuse.commercial" color="209,209,204" fill="0" layer="-3.00" shape="1129.328941,3216.326459 1169.425255,3215.666335 1176.592364,3225.928995 1174.677187,3241.350614 1155.034955,3241.832056"/>
    <poly id="1001714087" type="building.yes" color="255,230,230" fill="1" layer="-1.00" shape="1130.373166,3386.479465 1141.528179,3386.415206 1141.466031,3376.831955 1130.321802,3376.896120 1130.373166,3386.479465"/>
    <poly id="1001714092" type="man_made.water_tower" color="255,230,230" fill="1" layer="-1.00" shape="1078.735060,4533.777465 1079.576242,4534.976384 1079.556655,4536.437366 1078.671459,4537.607117 1077.261982,4538.039980 1075.866145,4537.565251 1075.024963,4536.366332 1075.044550,4534.905350 1075.929745,4533.735599 1077.339222,4533.302735 1078.735060,4533.777465"/>
    <poly id="1001714098" type="building.house" color="255,230,230" fill="1" layer="-1.00" shape="1183.001142,3732.319968 1187.521125,3732.269411 1187.455963,3724.811000 1182.935881,3724.850492 1183.001142,3732.319968"/>
    <poly id="1001714107" type="landuse.forest" color="140,196,107" fill="0" layer="-3.00" shape="1240.216791,4108.177644 1398.570884,4149.124863 1314.558588,4469.908414"/>
    <poly id="1001714108" type="landuse.residential" color="235,235,227" fill="0" layer="-3.00" shape="1060.311525,3670.433501 1062.034794,3714.530477"/>
    <poly id="1001714109" type="natural.tree_row" color="140,196,107" fill="0" layer="-4.00" shape="1050.122005,3561.249549 1050.579451,3613.580179"/>
    <poly id="1001714110" type="natural.tree_row" color="140,196,107" fill="0" layer="-4.00" shape="1050.422263,3693.096109 1051.133222,3711.482823 1051.536617,3721.837769"/>
    <poly id="1001715842" type="landuse.commercial" color="209,209,204" fill="0" layer="-3.00" shape="1129.069058,3164.348276 1129.328941,3216.326459"/>
    <poly id="1001715843" type="amenity.fuel" color="237,199,199" fill="0" layer="-1.00" shape="1093.988991,3164.953558 1093.405410,3127.796555 1050.773651,3128.467871"/>
    <poly id="1001715843#1" type="landuse.retail" color="194,194,130" fill="0" layer="-3.00" shape="1093.988991,3164.953558 1093.405410,3127.796555 1050.773651,3128.467871"/>
    <poly id="1001715844" type="landuse.residential" color="235,235,227" fill="0" layer="-3.00" shape="1093.988991,3164.953558 1112.348867,3164.638215"/>
    <poly id="1001802716" type="landuse.residential" color="235,235,227" fill="0" layer="-3.00" shape="439.300904,3503.759244 590.636922,3622.253111"/>
    <poly id="1001802717" type="man_made.water_tower" color="255,230,230" fill="1" layer="-1.00" shape="522.408649,3250.321094 523.252027,3251.763452 523.417601,3253.422018 522.881178,3254.998199 521.737523,3256.225564 519.812283,3256.906437 517.802511,3256.558841 516.226808,3255.266766 515.495117,3253.026621 516.176659,3250.774095 518.019499,3249.308203 520.369932,3249.132676 522.408649,3250.321094"/>
    <poly id="1001802718" type="landuse.residential" color="235,235,227" fill="0" layer="-3.00" shape="439.300904,3503.759244 547.707731,3366.001780 563.901805,3354.925948 572.534950,3349.007071 581.189772,3343.099074 589.823022,3337.191270 598.466967,3331.272309 607.078745,3325.375767 615.722795,3319.467879 623.487368,3314.154235 631.627297,3308.582771 640.351684,3311.848540"/>
    <poly id="1001802720" type="landuse.residential" color="235,235,227" fill="0" layer="-3.00" shape="706.943488,3476.127103 672.075755,3550.225582 617.650573,3623.344496 590.636922,3622.253111"/>
    <poly id="1001802723" type="landuse.residential" color="235,235,227" fill="0" layer="-3.00" shape="837.310622,3175.995624 910.326682,3127.537592 930.811171,3117.254535"/>
    <poly id="1001802737" type="landuse.residential" color="235,235,227" fill="0" layer="-3.00" shape="930.811171,3117.254535 942.306651,3112.926529 957.403749,3109.618383 982.631276,3107.505432 1016.147924,3114.405853"/>
    <poly id="1001802738" type="landuse.residential" color="235,235,227" fill="0" layer="-3.00" shape="930.811171,3117.254535 934.381135,3325.643376 933.588925,3468.223232 716.283695,3475.801866"/>
    <poly id="1001802742" type="man_made.water_tower" color="255,230,230" fill="1" layer="-1.00" shape="766.807391,3459.777623 767.650749,3461.219988 767.816307,3462.878553 767.279876,3464.454727 766.136125,3465.671015 764.210995,3466.362936 762.201246,3466.015323 760.625472,3464.712170 759.893904,3462.483087 760.564670,3460.230664 762.407506,3458.764790 764.768705,3458.589189 766.807391,3459.777623"/>
    <poly id="1001802743" type="building.house" color="255,230,230" fill="1" layer="-1.00" shape="826.144055,3094.586668 832.941415,3094.626808 832.972352,3088.296355 826.185778,3088.256120 826.144055,3094.586668"/>
    <poly id="1001802744" type="landuse.residential" color="235,235,227" fill="0" layer="-3.00" shape="653.735166,3302.601271 656.010408,3293.838605 666.384274,3287.107718 675.899756,3280.915557 685.415243,3274.723399 694.941521,3268.531152 704.457113,3262.350069 713.972710,3256.168990 723.499002,3249.976756 733.025298,3243.784526 742.540908,3237.603460 752.067213,3231.411238 761.582735,3225.219115 771.098261,3219.026997 780.624677,3212.845854 828.503106,3181.727782"/>
    <poly id="1001802745" type="building.yes" color="255,230,230" fill="1" layer="-1.00" shape="429.345021,3561.847520 437.732159,3568.491535 448.692311,3554.816520 457.242331,3561.580848 465.064896,3551.817784 456.362778,3544.933052 467.440357,3531.113152 459.216296,3524.611566 448.149506,3538.431375 443.217264,3534.534834 442.779713,3535.080942 437.849340,3541.244090 435.394700,3544.297906 440.294384,3548.172597 429.345021,3561.847520"/>
    <poly id="1001802747" type="building.yes" color="255,230,230" fill="1" layer="-1.00" shape="647.719047,3306.759718 644.734682,3302.303808 642.417846,3303.851309 645.424078,3308.340227 647.719047,3306.759718"/>
    <poly id="1022511719" type="landuse.residential" color="235,235,227" fill="0" layer="-3.00" shape="620.743932,2343.888672 831.105386,2341.849368"/>
    <poly id="1022511720" type="landuse.retail" color="194,194,130" fill="0" layer="-3.00" shape="923.190621,2199.777495 931.173985,2199.696666"/>
    <poly id="1022511720#1" type="shop.hardware" color="237,199,255" fill="0" layer="-1.00" shape="923.190621,2199.777495 931.173985,2199.696666"/>
    <poly id="1022511721" type="landuse.residential" color="235,235,227" fill="0" layer="-3.00" shape="923.190621,2199.777495 889.056221,2200.109005 889.366163,2231.867844"/>
    <poly id="1022511724" type="landuse.residential" color="235,235,227" fill="0" layer="-3.00" shape="977.497779,1869.304041 976.797734,1900.330208 949.558154,2046.483059"/>
    <poly id="1022511725" type="building.retail" color="255,230,230" fill="1" layer="-1.00" shape="899.510616,2238.330693 928.596261,2238.076508 928.544139,2232.111991 899.458488,2232.366175 899.510616,2238.330693"/>
    <poly id="1022511726" type="building.roof" color="255,230,230" fill="1" layer="-1.00" shape="909.811851,2257.795594 922.833493,2257.681795 922.771892,2250.632821 909.750247,2250.746619 909.811851,2257.795594"/>
    <poly id="1022511727" type="landuse.residential" color="235,235,227" fill="0" layer="-3.00" shape="718.571109,1907.334724 977.497779,1869.304041"/>
    <poly id="1022511728" type="landuse.residential" color="235,235,227" fill="0" layer="-3.00" shape="945.786674,2066.790270 923.927173,2184.056289 923.190621,2199.777495"/>
    <poly id="1022511730" type="amenity.place_of_worship" color="237,199,199" fill="0" layer="-1.00" shape="831.105386,2341.849368 890.430326,2341.275420"/>
    <poly id="1022511730#1" type="landuse.religious" color="194,194,130" fill="0" layer="-3.00" shape="831.105386,2341.849368 890.430326,2341.275420"/>
    <poly id="1022511731" type="landuse.residential" color="235,235,227" fill="0" layer="-3.00" shape="889.366163,2231.867844 889.742223,2269.956282"/>
    <poly id="1022511732" type="amenity.fuel" color="237,199,199" fill="0" layer="-1.00" shape="889.366163,2231.867844 931.483873,2231.455498"/>
    <poly id="1022511732#1" type="landuse.retail" color="194,194,130" fill="0" layer="-3.00" shape="889.366163,2231.867844 931.483873,2231.455498"/>
    <poly id="1022511734" type="landuse.residential" color="235,235,227" fill="0" layer="-3.00" shape="889.742223,2269.956282 890.430326,2341.275420"/>
    <poly id="1022511735" type="amenity.place_of_worship" color="237,199,199" fill="0" layer="-1.00" shape="890.430326,2341.275420 927.423458,2340.918900 937.445783,2340.820248"/>
    <poly id="1022511735#1" type="landuse.religious" color="194,194,130" fill="0" layer="-3.00" shape="890.430326,2341.275420 927.423458,2340.918900 937.445783,2340.820248"/>
    <poly id="1022511736" type="amenity.place_of_worship" color="237,199,199" fill="0" layer="-1.00" shape="937.445783,2340.820248 941.959588,2380.775998 936.770613,2382.082953 936.848635,2384.837890 936.954035,2388.256591 942.860403,2388.791512 944.041704,2399.272458"/>
    <poly id="1022511736#1" type="landuse.religious" color="194,194,130" fill="0" layer="-3.00" shape="937.445783,2340.820248 941.959588,2380.775998 936.770613,2382.082953 936.848635,2384.837890 936.954035,2388.256591 942.860403,2388.791512 944.041704,2399.272458"/>
    <poly id="1022511737" type="amenity.fuel" color="237,199,199" fill="0" layer="-1.00" shape="889.742223,2269.956282 926.735461,2269.599775 931.849080,2269.544022"/>
    <poly id="1022511737#1" type="landuse.retail" color="194,194,130" fill="0" layer="-3.00" shape="889.742223,2269.956282 926.735461,2269.599775 931.849080,2269.544022"/>
    <poly id="1023323678" type="landuse.residential" color="235,235,227" fill="0" layer="-3.00" shape="471.088226,3851.276358 423.252865,3882.184734 398.855997,3905.118781 417.091013,3938.601908 398.382776,3966.798140 405.739927,3980.257234 380.563493,4016.389767 376.632966,4043.050938 374.844136,4053.126341 367.636935,4085.050849 378.705424,4098.521647 380.641215,4103.971662 386.377701,4114.700400"/>
    <poly id="1032000242" type="building.school" color="255,230,230" fill="1" layer="-1.00" shape="1030.087792,4813.361850 1043.529292,4815.767470 1051.258631,4773.181379 1037.827897,4770.775658 1030.087792,4813.361850"/>
    <poly id="1032000243" type="building.school" color="255,230,230" fill="1" layer="-1.00" shape="1047.525798,4802.762269 1047.914890,4815.175764 1080.173468,4814.174228 1079.784392,4801.760735 1047.525798,4802.762269"/>
    <poly id="1033118583" type="building.yes" color="255,230,230" fill="1" layer="-1.00" shape="1024.564957,1637.432348 1030.638993,1637.379314 1030.593777,1632.200481 1024.519739,1632.253514 1024.564957,1637.432348"/>
    <poly id="1033118584" type="building.yes" color="255,230,230" fill="1" layer="-1.00" shape="1032.038206,1632.044002 1039.999042,1633.070103 1041.010091,1625.292434 1033.060041,1624.266238 1032.038206,1632.044002"/>
    <poly id="1033118585" type="building.yes" color="255,230,230" fill="1" layer="-1.00" shape="967.541973,1691.747814 974.190758,1690.793339 972.468176,1678.867381 965.819387,1679.821855 967.541973,1691.747814"/>
    <poly id="1033118586" type="building.yes" color="255,230,230" fill="1" layer="-1.00" shape="988.781425,1688.696036 987.048158,1676.781238 980.895068,1677.664978 982.628338,1689.579777 988.781425,1688.696036"/>
    <poly id="1033118588" type="landuse.residential" color="235,235,227" fill="0" layer="-3.00" shape="876.940145,1661.840158 885.270235,1660.671769 889.375990,1660.093627 894.063659,1659.432935 928.709390,1654.559710 953.947325,1650.997109 983.064845,1646.902652 1037.021618,1639.304532 1034.542892,1649.518629"/>
    <poly id="1033118589" type="landuse.residential" color="235,235,227" fill="0" layer="-3.00" shape="844.190977,1710.886375 858.910032,1708.666136 866.765307,1707.490822 867.357911,1707.397109 875.051454,1706.234277 875.267034,1706.210260 880.730028,1705.376788 881.021032,1705.341046 890.934335,1703.848955 891.462304,1703.766875 898.660245,1702.685847 905.879667,1701.593568 914.101277,1700.359734 921.309911,1699.267554 928.389372,1698.209704 934.725187,1697.246886 937.979404,1696.764724 945.716008,1695.590471 953.452710,1694.427287 961.200200,1693.264012 968.936902,1692.100833 976.684296,1690.926496 984.431787,1689.763228 1011.068348,1685.745798"/>
    <poly id="1033118592" type="building.commercial" color="255,230,230" fill="1" layer="-1.00" shape="1012.998873,1707.895598 1019.862431,1709.296473 1020.986772,1709.552257 1023.308934,1698.708720 1015.065776,1697.474825 1014.032034,1702.652014 1012.998873,1707.895598"/>
    <poly id="1033118593" type="man_made.water_tower" color="255,230,230" fill="1" layer="-1.00" shape="998.413608,1699.490515 999.396116,1698.330995 1000.904501,1698.085422 1002.206099,1698.870860 1002.682671,1700.316440 1002.251062,1701.548616 1001.189554,1702.310423 999.884415,1702.355021 998.864772,1701.733121 998.316061,1700.675507 998.413608,1699.490515"/>
    <poly id="1034651671" type="building.house" color="255,230,230" fill="1" layer="-1.00" shape="1145.313529,4761.269862 1147.638211,4751.997733 1153.886357,4753.437109 1152.144092,4762.693078 1145.313529,4761.269862"/>
    <poly id="1034651672" type="landuse.residential" color="235,235,227" fill="1" layer="-3.00" shape="1134.591019,4887.203630 1158.728160,4882.742918 1165.137374,4895.203365 1193.934086,4904.214440 1206.411042,4890.083788 1217.202936,4857.198676 1247.798978,4812.874523 1269.441076,4782.141165 1193.237450,4766.539149 1199.472505,4730.694789 1132.125810,4721.268220 1134.810656,4797.594240 1139.744704,4814.073748 1163.222986,4820.619160 1152.683696,4854.011163 1130.958573,4875.227975 1134.591019,4887.203630"/>
    <poly id="1035894356" type="man_made.bridge" color="255,230,230" fill="1" layer="-1.00" shape="442.659623,2937.852209 442.818582,2939.986704 443.414106,2947.617561 443.987083,2955.137949 444.157316,2957.327679 477.117134,2954.803413 476.994807,2953.155535 476.312919,2944.285956 475.705551,2936.533469 475.619467,2935.327944 442.659623,2937.852209"/>
    <poly id="1038767227" type="building.yes" color="255,230,230" fill="1" layer="-1.00" shape="895.404192,5423.943194 884.814357,5421.922191 885.980764,5415.913785 896.570699,5417.945855 895.404192,5423.943194"/>
    <poly id="1054124071" type="landuse.commercial" color="209,209,204" fill="0" layer="-3.00" shape="702.064916,6015.928481 708.275973,6016.858959 729.242585,6020.028344 737.495257,6021.272931"/>
    <poly id="1054124072" type="landuse.commercial" color="209,209,204" fill="0" layer="-3.00" shape="694.892192,6062.792829 701.103335,6063.734369 713.568766,6065.617076 722.069910,6066.903744 730.322568,6068.148326"/>
    <poly id="1061586351" type="building.residential" color="255,230,230" fill="1" layer="-1.00" shape="1009.431587,2634.743528 1009.249495,2610.199095 1088.954045,2609.591337 1089.136058,2634.135760 1009.431587,2634.743528"/>
    <poly id="1071397631" type="leisure.track" color="207,245,201" fill="0" layer="-2.00" shape="1323.779549,3739.501102 1330.490359,3751.892577 1336.905222,3762.515959 1340.961135,3769.862054 1342.733067,3775.103279 1343.761516,3784.157949 1342.876446,3795.232403 1341.663078,3808.246401 1340.095170,3825.136849 1335.142910,3838.692563 1334.951533,3839.015169 1332.092149,3843.909496 1328.669906,3849.826878 1317.446244,3884.010408"/>
    <poly id="1071397631#1" type="sport.running;walking" color="79,230,125" fill="0" layer="-2.00" shape="1323.779549,3739.501102 1330.490359,3751.892577 1336.905222,3762.515959 1340.961135,3769.862054 1342.733067,3775.103279 1343.761516,3784.157949 1342.876446,3795.232403 1341.663078,3808.246401 1340.095170,3825.136849 1335.142910,3838.692563 1334.951533,3839.015169 1332.092149,3843.909496 1328.669906,3849.826878 1317.446244,3884.010408"/>
    <poly id="1071403768" type="leisure.track" color="207,245,201" fill="0" layer="-2.00" shape="1317.446244,3884.010408 1310.954621,3896.716369"/>
    <poly id="1071403768#1" type="sport.running" color="79,230,125" fill="0" layer="-2.00" shape="1317.446244,3884.010408 1310.954621,3896.716369"/>
    <poly id="1071403769" type="leisure.track" color="207,245,201" fill="0" layer="-2.00" shape="1310.954621,3896.716369 1301.334888,3907.014970"/>
    <poly id="1071403769#1" type="sport.running" color="79,230,125" fill="0" layer="-2.00" shape="1310.954621,3896.716369 1301.334888,3907.014970"/>
    <poly id="1071403770" type="leisure.track" color="207,245,201" fill="0" layer="-2.00" shape="1301.334888,3907.014970 1290.500770,3920.323266"/>
    <poly id="1071403770#1" type="sport.running" color="79,230,125" fill="0" layer="-2.00" shape="1301.334888,3907.014970 1290.500770,3920.323266"/>
    <poly id="1071403771" type="leisure.track" color="207,245,201" fill="0" layer="-2.00" shape="1268.770114,3929.908721 1263.618414,3926.799701 1258.763896,3921.895275 1250.812224,3913.188815 1243.324476,3903.249896 1244.606684,3894.418508 1244.114335,3886.222360 1243.047588,3882.668190 1240.541436,3878.595391 1237.801916,3874.978366 1235.147770,3872.489403 1232.221262,3870.932425 1227.574133,3870.010216 1224.926849,3868.306932 1222.576207,3865.981320 1221.488154,3864.928419 1219.634269,3863.893275 1217.520456,3863.978142 1215.835815,3866.261541 1215.931187,3869.768863"/>
    <poly id="1071403771#1" type="sport.running" color="79,230,125" fill="0" layer="-2.00" shape="1268.770114,3929.908721 1263.618414,3926.799701 1258.763896,3921.895275 1250.812224,3913.188815 1243.324476,3903.249896 1244.606684,3894.418508 1244.114335,3886.222360 1243.047588,3882.668190 1240.541436,3878.595391 1237.801916,3874.978366 1235.147770,3872.489403 1232.221262,3870.932425 1227.574133,3870.010216 1224.926849,3868.306932 1222.576207,3865.981320 1221.488154,3864.928419 1219.634269,3863.893275 1217.520456,3863.978142 1215.835815,3866.261541 1215.931187,3869.768863"/>
    <poly id="1071404929" type="leisure.track" color="207,245,201" fill="0" layer="-2.00" shape="1212.149556,3874.062594 1210.588455,3878.137725 1210.083874,3882.126158 1211.300590,3885.557283 1211.533593,3888.764601"/>
    <poly id="1071404929#1" type="sport.running" color="79,230,125" fill="0" layer="-2.00" shape="1212.149556,3874.062594 1210.588455,3878.137725 1210.083874,3882.126158 1211.300590,3885.557283 1211.533593,3888.764601"/>
    <poly id="1071406617" type="leisure.track" color="207,245,201" fill="1" layer="-2.00" shape="1215.616724,3873.290832 1216.127670,3872.500630 1216.356976,3871.580087 1216.284032,3870.640052 1215.931187,3869.768863 1215.331772,3869.076895 1214.550706,3868.585716 1213.663986,3868.349994 1212.736629,3868.402363 1211.876318,3868.719748 1211.158471,3869.290423 1210.636447,3870.047522 1210.374392,3870.924084 1210.404378,3871.886628 1210.735938,3872.791203 1211.335836,3873.538500 1212.149556,3874.062594 1213.068639,3874.298033 1214.017571,3874.245475 1214.888379,3873.894799 1215.616724,3873.290832"/>
    <poly id="1071406617#1" type="sport.running" color="79,230,125" fill="1" layer="-2.00" shape="1215.616724,3873.290832 1216.127670,3872.500630 1216.356976,3871.580087 1216.284032,3870.640052 1215.931187,3869.768863 1215.331772,3869.076895 1214.550706,3868.585716 1213.663986,3868.349994 1212.736629,3868.402363 1211.876318,3868.719748 1211.158471,3869.290423 1210.636447,3870.047522 1210.374392,3870.924084 1210.404378,3871.886628 1210.735938,3872.791203 1211.335836,3873.538500 1212.149556,3874.062594 1213.068639,3874.298033 1214.017571,3874.245475 1214.888379,3873.894799 1215.616724,3873.290832"/>
    <poly id="1071406618" type="leisure.track" color="207,245,201" fill="0" layer="-2.00" shape="1202.955163,3868.830890 1210.374392,3870.924084"/>
    <poly id="1071406618#1" type="sport.running" color="79,230,125" fill="0" layer="-2.00" shape="1202.955163,3868.830890 1210.374392,3870.924084"/>
    <poly id="1071406621" type="leisure.track" color="207,245,201" fill="0" layer="-2.00" shape="1211.533593,3888.764601 1203.239624,3890.275740"/>
    <poly id="1071406621#1" type="sport.running" color="79,230,125" fill="0" layer="-2.00" shape="1211.533593,3888.764601 1203.239624,3890.275740"/>
    <poly id="1071406622" type="leisure.track" color="207,245,201" fill="0" layer="-2.00" shape="1211.533593,3888.764601 1224.857542,3893.716761"/>
    <poly id="1071406622#1" type="sport.running" color="79,230,125" fill="0" layer="-2.00" shape="1211.533593,3888.764601 1224.857542,3893.716761"/>
    <poly id="1071406623" type="leisure.track" color="207,245,201" fill="0" layer="-2.00" shape="1224.857542,3893.716761 1228.056583,3896.831767 1229.937397,3899.714820 1233.530072,3902.195584 1237.962407,3903.230337 1243.324476,3903.249896"/>
    <poly id="1071406623#1" type="sport.running" color="79,230,125" fill="0" layer="-2.00" shape="1224.857542,3893.716761 1228.056583,3896.831767 1229.937397,3899.714820 1233.530072,3902.195584 1237.962407,3903.230337 1243.324476,3903.249896"/>
    <poly id="1071406624" type="leisure.track" color="207,245,201" fill="0" layer="-2.00" shape="1243.047588,3882.668190 1259.833692,3883.805303"/>
    <poly id="1071406624#1" type="sport.running" color="79,230,125" fill="0" layer="-2.00" shape="1243.047588,3882.668190 1259.833692,3883.805303"/>
    <poly id="1071406625" type="leisure.track" color="207,245,201" fill="0" layer="-2.00" shape="1290.500770,3920.323266 1282.555860,3924.741881 1276.862724,3923.873068 1268.770114,3929.908721"/>
    <poly id="1071406625#1" type="sport.running" color="79,230,125" fill="0" layer="-2.00" shape="1290.500770,3920.323266 1282.555860,3924.741881 1276.862724,3923.873068 1268.770114,3929.908721"/>
    <poly id="1071406626" type="leisure.track" color="207,245,201" fill="0" layer="-2.00" shape="1268.770114,3929.908721 1273.005982,3931.919068 1279.619721,3935.668257 1284.465400,3938.326217 1287.256778,3940.470916 1289.078908,3942.812215 1293.261105,3957.206706 1293.734727,3964.495546 1292.776668,3968.443670 1287.072965,3987.362264 1278.818613,4004.521396 1270.222509,4020.842446 1251.664624,4031.761425 1246.483289,4035.137776 1233.041972,4043.909393 1218.499812,4057.571068 1210.113913,4073.248440 1209.575666,4078.321709 1208.958274,4084.214608 1207.939424,4098.488536 1207.867476,4101.366517 1207.789479,4104.786820 1217.793026,4143.366591 1194.623773,4143.856789 1123.183327,4143.916796 1121.370035,4053.727621"/>
    <poly id="1071406626#1" type="sport.running" color="79,230,125" fill="0" layer="-2.00" shape="1268.770114,3929.908721 1273.005982,3931.919068 1279.619721,3935.668257 1284.465400,3938.326217 1287.256778,3940.470916 1289.078908,3942.812215 1293.261105,3957.206706 1293.734727,3964.495546 1292.776668,3968.443670 1287.072965,3987.362264 1278.818613,4004.521396 1270.222509,4020.842446 1251.664624,4031.761425 1246.483289,4035.137776 1233.041972,4043.909393 1218.499812,4057.571068 1210.113913,4073.248440 1209.575666,4078.321709 1208.958274,4084.214608 1207.939424,4098.488536 1207.867476,4101.366517 1207.789479,4104.786820 1217.793026,4143.366591 1194.623773,4143.856789 1123.183327,4143.916796 1121.370035,4053.727621"/>
    <poly id="1071406627" type="leisure.track" color="207,245,201" fill="0" layer="-2.00" shape="1290.500770,3920.323266 1292.379498,3927.909702 1291.764604,3937.797663 1290.392455,3941.273534 1289.078908,3942.812215"/>
    <poly id="1071406627#1" type="sport.running" color="79,230,125" fill="0" layer="-2.00" shape="1290.500770,3920.323266 1292.379498,3927.909702 1291.764604,3937.797663 1290.392455,3941.273534 1289.078908,3942.812215"/>
    <poly id="1072529525" type="building.yes" color="255,230,230" fill="1" layer="-1.00" shape="973.232417,5902.452686 977.968106,5903.672824 979.304147,5898.559343 974.568457,5897.339205 973.232417,5902.452686"/>
    <poly id="1072534757" type="landuse.retail" color="194,194,130" fill="0" layer="-3.00" shape="682.417045,6148.359986 691.142939,6149.445466 713.568658,6113.580533 753.208842,6109.403832 752.032489,6082.278390 751.105465,6071.286134"/>
    <poly id="1072534757#1" type="shop.mall" color="237,199,255" fill="0" layer="-1.00" shape="682.417045,6148.359986 691.142939,6149.445466 713.568658,6113.580533 753.208842,6109.403832 752.032489,6082.278390 751.105465,6071.286134"/>
    <poly id="1072534758" type="landuse.retail" color="194,194,130" fill="0" layer="-3.00" shape="891.998291,5661.997134 863.618527,5791.616343"/>
    <poly id="1072534758#1" type="shop.mall" color="237,199,255" fill="0" layer="-1.00" shape="891.998291,5661.997134 863.618527,5791.616343"/>
    <poly id="1072631667" type="landuse.retail" color="194,194,130" fill="0" layer="-3.00" shape="751.105465,6071.286134 800.304262,6025.348215 836.616602,5882.689045"/>
    <poly id="1072631667#1" type="shop.mall" color="237,199,255" fill="0" layer="-1.00" shape="751.105465,6071.286134 800.304262,6025.348215 836.616602,5882.689045"/>
    <poly id="1072631668" type="amenity.parking" color="184,184,179" fill="0" layer="-1.00" shape="751.105465,6071.286134 730.322568,6068.148326"/>
    <poly id="1073730483" type="leisure.garden" color="207,245,201" fill="1" layer="-2.00" shape="1633.786815,321.216545 1635.820959,323.102318 1637.179809,325.503032 1637.764338,328.198217 1637.507691,330.944985 1636.429235,333.488636 1634.645629,335.595754 1632.295495,337.077001 1629.614947,337.786454 1626.840865,337.666721 1624.232382,336.737680 1611.508360,329.002105 1621.062789,313.480965 1633.786815,321.216545"/>
    <poly id="1073730487" type="building.residential" color="255,230,230" fill="1" layer="-1.00" shape="1703.094588,575.921875 1703.052743,581.035043 1709.332875,581.080019 1709.374721,575.966851 1703.094588,575.921875"/>
    <poly id="1073730488" type="building.residential" color="255,230,230" fill="1" layer="-1.00" shape="1691.593388,576.021916 1691.551546,581.135084 1697.831678,581.180057 1697.873521,576.066889 1691.593388,576.021916"/>
    <poly id="1073730489" type="building.residential" color="255,230,230" fill="1" layer="-1.00" shape="1691.196322,588.674580 1691.154576,593.798814 1697.434704,593.843787 1697.476451,588.719553 1691.196322,588.674580"/>
    <poly id="1073730490" type="building.residential" color="255,230,230" fill="1" layer="-1.00" shape="1703.047300,587.852162 1703.016341,592.976302 1709.296469,593.021277 1709.327429,587.897138 1703.047300,587.852162"/>
    <poly id="1073730491" type="building.residential" color="255,230,230" fill="1" layer="-1.00" shape="1702.775673,597.559999 1702.733925,602.684233 1709.014051,602.729208 1709.055800,597.604974 1702.775673,597.559999"/>
    <poly id="1073730492" type="building.residential" color="255,230,230" fill="1" layer="-1.00" shape="1691.202136,598.025871 1691.160294,603.139039 1697.440420,603.184011 1697.482263,598.070843 1691.202136,598.025871"/>
    <poly id="1073730493" type="building.residential" color="255,230,230" fill="1" layer="-1.00" shape="1691.355147,606.933214 1691.313402,612.057448 1697.593526,612.102420 1697.635272,606.978186 1691.355147,606.933214"/>
    <poly id="1073730494" type="building.residential" color="255,230,230" fill="1" layer="-1.00" shape="1702.704034,606.690629 1702.673075,611.814769 1708.953199,611.859744 1708.984159,606.735604 1702.704034,606.690629"/>
    <poly id="1073730495" type="building.residential" color="255,230,230" fill="1" layer="-1.00" shape="1702.721885,616.185682 1702.680138,621.309915 1708.960259,621.354890 1709.002007,616.230656 1702.721885,616.185682"/>
    <poly id="1073730496" type="building.residential" color="255,230,230" fill="1" layer="-1.00" shape="1691.221281,616.352120 1691.179536,621.476354 1697.459658,621.521326 1697.501404,616.397091 1691.221281,616.352120"/>
    <poly id="1073730497" type="building.residential" color="255,230,230" fill="1" layer="-1.00" shape="1703.027087,626.463968 1702.985340,631.588202 1709.265459,631.633176 1709.307207,626.508943 1703.027087,626.463968"/>
    <poly id="1073730498" type="building.residential" color="255,230,230" fill="1" layer="-1.00" shape="1691.157830,626.423347 1691.116085,631.547581 1697.396205,631.592553 1697.437950,626.468318 1691.157830,626.423347"/>
    <poly id="1073730499" type="building.residential" color="255,230,230" fill="1" layer="-1.00" shape="1690.963458,637.569181 1690.932503,642.693322 1697.212620,642.738292 1697.243576,637.614152 1690.963458,637.569181"/>