<?xml version="1.0" encoding="UTF-8"?>

<!-- generated on 2024-06-25 22:06:46 by Eclipse SUMO netedit Version 1.19.0
<configuration xmlns:xsi="http://www.w3.org/2001/XMLSchema-instance" xsi:noNamespaceSchemaLocation="http://sumo.dlr.de/xsd/neteditConfiguration.xsd">

    <input>
        <sumocfg-file value="C:\Users\Gabe Piano\OneDrive\Documents\GitHub\UV-Express-Driver-Behavior-Modeling\NewMap\testMap.sumocfg"/>
        <additional-files value="C:\Users\Gabe Piano\OneDrive\Documents\GitHub\UV-Express-Driver-Behavior-Modeling\NewMap\testMap.add.xml"/>
        <route-files value="C:\Users\Gabe Piano\OneDrive\Documents\GitHub\UV-Express-Driver-Behavior-Modeling\NewMap\UVRoutes.rou.xml"/>
        <sumo-net-file value="C:\Users\Gabe Piano\OneDrive\Documents\GitHub\UV-Express-Driver-Behavior-Modeling\NewMap\NoPolyGons-Full-route.net.xml"/>
    </input>

    <output>
        <output-file value="C:\Users\Gabe Piano\OneDrive\Documents\GitHub\UV-Express-Driver-Behavior-Modeling\NewMap\NoPolyGons-Full-route.net.xml"/>
        <output.street-names value="true"/>
    </output>

    <processing>
        <geometry.min-radius.fix.railways value="false"/>
        <geometry.max-grade.fix value="false"/>
        <offset.disable-normalization value="true"/>
        <lefthand value="0"/>
    </processing>

    <junctions>
        <no-turnarounds value="true"/>
        <junctions.corner-detail value="5"/>
        <junctions.limit-turn-speed value="5.50"/>
        <rectangular-lane-cut value="0"/>
    </junctions>

    <pedestrian>
        <walkingareas value="0"/>
    </pedestrian>

</configuration>
-->

<net version="1.16" junctionCornerDetail="5" limitTurnSpeed="5.50" xmlns:xsi="http://www.w3.org/2001/XMLSchema-instance" xsi:noNamespaceSchemaLocation="http://sumo.dlr.de/xsd/net_file.xsd">

    <location netOffset="-278622.72,-1583295.62" convBoundary="382.04,0.00,9876.11,25513.55" origBoundary="120.947043,14.313092,121.038524,14.549722" projParameter="+proj=utm +zone=51 +ellps=WGS84 +datum=WGS84 +units=m +no_defs"/>

    <type id="highway.motorway" priority="14" numLanes="2" speed="39.44" allow="private emergency authority army vip passenger hov taxi bus coach delivery truck trailer motorcycle evehicle custom1 custom2" oneway="1"/>
    <type id="highway.motorway_link" priority="9" numLanes="1" speed="22.22" allow="private emergency authority army vip passenger hov taxi bus coach delivery truck trailer motorcycle evehicle custom1 custom2" oneway="1"/>
    <type id="highway.primary" priority="12" numLanes="2" speed="27.78" disallow="tram rail_urban rail rail_electric rail_fast ship" oneway="0"/>
    <type id="highway.primary_link" priority="7" numLanes="1" speed="22.22" disallow="tram rail_urban rail rail_electric rail_fast ship" oneway="0"/>
    <type id="highway.trunk" priority="13" numLanes="2" speed="27.78" disallow="pedestrian bicycle tram rail_urban rail rail_electric rail_fast ship" oneway="0"/>
    <type id="highway.trunk_link" priority="8" numLanes="1" speed="22.22" disallow="pedestrian bicycle tram rail_urban rail rail_electric rail_fast ship" oneway="0"/>

    <edge id=":10009099245_0" function="internal">
        <lane id=":10009099245_0_0" index="0" disallow="pedestrian bicycle tram rail_urban rail rail_electric rail_fast ship" speed="6.01" length="5.14" shape="5060.63,24776.75 5055.83,24774.91"/>
    </edge>
    <edge id=":10009099245_1" function="internal">
        <lane id=":10009099245_1_0" index="0" disallow="pedestrian bicycle tram rail_urban rail rail_electric rail_fast ship" speed="22.22" length="2.91" shape="5060.63,24776.75 5061.20,24777.49 5061.45,24778.10 5061.65,24778.74 5062.07,24779.61"/>
        <lane id=":10009099245_1_1" index="1" disallow="pedestrian bicycle tram rail_urban rail rail_electric rail_fast ship" speed="22.22" length="2.91" shape="5058.29,24778.93 5058.73,24779.53 5058.89,24780.03 5059.02,24780.56 5059.33,24781.26"/>
    </edge>
    <edge id=":10009099245_3" function="internal">
        <lane id=":10009099245_3_0" index="0" disallow="pedestrian bicycle tram rail_urban rail rail_electric rail_fast ship" speed="14.56" length="4.21" shape="5053.14,24778.20 5054.15,24777.68 5055.02,24777.77 5055.96,24777.98 5057.19,24777.83"/>
    </edge>
    <edge id=":10009099245_4" function="internal">
        <lane id=":10009099245_4_0" index="0" disallow="pedestrian bicycle tram rail_urban rail rail_electric rail_fast ship" speed="6.65" length="7.86" shape="5053.14,24778.20 5055.73,24776.56 5058.08,24776.24 5060.19,24777.26 5062.07,24779.61"/>
        <lane id=":10009099245_4_1" index="1" disallow="pedestrian bicycle tram rail_urban rail rail_electric rail_fast ship" speed="5.06" length="7.86" shape="5055.07,24780.35 5056.39,24779.83 5057.55,24779.81 5058.52,24780.29 5059.33,24781.26"/>
    </edge>
    <edge id=":10009099246_0" function="internal">
        <lane id=":10009099246_0_0" index="0" disallow="pedestrian bicycle tram rail_urban rail rail_electric rail_fast ship" speed="5.18" length="3.58" shape="5063.15,24787.41 5066.08,24785.34"/>
    </edge>
    <edge id=":10009099246_1" function="internal">
        <lane id=":10009099246_1_0" index="0" disallow="pedestrian bicycle tram rail_urban rail rail_electric rail_fast ship" speed="21.05" length="2.54" shape="5063.15,24787.41 5061.53,24789.95"/>
        <lane id=":10009099246_1_1" index="1" disallow="pedestrian bicycle tram rail_urban rail rail_electric rail_fast ship" speed="17.43" length="2.54" shape="5060.55,24785.49 5059.62,24787.33"/>
    </edge>
    <edge id=":10009099246_3" function="internal">
        <lane id=":10009099246_3_0" index="0" disallow="pedestrian bicycle tram rail_urban rail rail_electric rail_fast ship" speed="22.22" length="7.03" shape="5062.17,24779.78 5062.92,24781.65 5062.95,24783.09 5062.86,24784.59 5063.25,24786.63"/>
    </edge>
    <edge id=":10009099246_4" function="internal">
        <lane id=":10009099246_4_0" index="0" disallow="pedestrian bicycle tram rail_urban rail rail_electric rail_fast ship" speed="7.16" length="9.10" shape="5062.17,24779.78 5063.78,24783.25 5064.21,24786.10 5063.46,24788.34 5061.53,24789.95"/>
        <lane id=":10009099246_4_1" index="1" disallow="pedestrian bicycle tram rail_urban rail rail_electric rail_fast ship" speed="5.57" length="9.10" shape="5059.43,24781.44 5060.45,24783.53 5060.82,24785.21 5060.55,24786.48 5059.62,24787.33"/>
    </edge>
    <edge id=":10009099251_0" function="internal">
        <lane id=":10009099251_0_0" index="0" disallow="pedestrian bicycle tram rail_urban rail rail_electric rail_fast ship" speed="5.03" length="2.60" shape="5059.23,24794.80 5059.07,24792.21"/>
    </edge>
    <edge id=":10009099251_1" function="internal">
        <lane id=":10009099251_1_0" index="0" disallow="pedestrian bicycle tram rail_urban rail rail_electric rail_fast ship" speed="22.22" length="9.93" shape="5059.23,24794.80 5056.73,24793.02 5055.00,24791.80 5053.46,24790.38 5051.57,24788.01"/>
        <lane id=":10009099251_1_1" index="1" disallow="pedestrian bicycle tram rail_urban rail rail_electric rail_fast ship" speed="22.22" length="9.93" shape="5061.04,24792.16 5058.73,24790.51 5057.13,24789.37 5055.71,24788.06 5053.95,24785.86"/>
    </edge>
    <edge id=":10009099251_3" function="internal">
        <lane id=":10009099251_3_0" index="0" disallow="pedestrian bicycle tram rail_urban rail rail_electric rail_fast ship" speed="22.22" length="4.01" shape="5061.35,24790.04 5060.30,24790.22 5059.52,24789.79 5058.71,24789.31 5057.59,24789.31"/>
    </edge>
    <edge id=":10009099251_4" function="internal">
        <lane id=":10009099251_4_0" index="0" disallow="pedestrian bicycle tram rail_urban rail rail_electric rail_fast ship" speed="7.55" length="8.67" shape="5061.35,24790.04 5058.47,24791.08 5055.89,24791.08 5053.58,24790.06 5051.57,24788.01"/>
        <lane id=":10009099251_4_1" index="1" disallow="pedestrian bicycle tram rail_urban rail rail_electric rail_fast ship" speed="5.87" length="8.67" shape="5059.45,24787.42 5057.92,24787.93 5056.49,24787.84 5055.17,24787.15 5053.95,24785.86"/>
    </edge>
    <edge id=":10009099254_0" function="internal">
        <lane id=":10009099254_0_0" index="0" disallow="pedestrian bicycle tram rail_urban rail rail_electric rail_fast ship" speed="15.60" length="8.19" shape="5051.45,24787.85 5050.33,24785.81 5050.12,24784.17 5050.23,24782.41 5050.03,24779.97"/>
    </edge>
    <edge id=":10009099254_1" function="internal">
        <lane id=":10009099254_1_0" index="0" disallow="pedestrian bicycle tram rail_urban rail rail_electric rail_fast ship" speed="7.25" length="8.57" shape="5051.45,24787.85 5050.16,24785.36 5049.99,24782.94 5050.93,24780.60 5052.99,24778.33"/>
        <lane id=":10009099254_1_1" index="1" disallow="pedestrian bicycle tram rail_urban rail rail_electric rail_fast ship" speed="5.34" length="8.57" shape="5053.84,24785.70 5052.98,24784.11 5052.88,24782.71 5053.51,24781.48 5054.89,24780.44"/>
    </edge>
    <edge id=":10009099254_3" function="internal">
        <lane id=":10009099254_3_0" index="0" disallow="pedestrian bicycle tram rail_urban rail rail_electric rail_fast ship" speed="5.21" length="2.38" shape="5049.06,24781.84 5046.93,24780.78"/>
    </edge>
    <edge id=":10009099254_4" function="internal">
        <lane id=":10009099254_4_0" index="0" disallow="pedestrian bicycle tram rail_urban rail rail_electric rail_fast ship" speed="22.22" length="4.92" shape="5049.06,24781.84 5050.07,24780.65 5050.88,24779.94 5051.76,24779.31 5052.99,24778.33"/>
        <lane id=":10009099254_4_1" index="1" disallow="pedestrian bicycle tram rail_urban rail rail_electric rail_fast ship" speed="12.87" length="4.92" shape="5051.73,24783.62 5052.52,24782.52 5053.08,24781.76 5053.76,24781.14 5054.89,24780.44"/>
    </edge>
    <edge id=":1005660219_0" function="internal">
        <lane id=":1005660219_0_0" index="0" disallow="bicycle tram rail_urban rail rail_electric rail_fast ship" speed="16.67" length="8.65" shape="5182.48,23049.96 5183.20,23052.40 5184.43,23053.87 5185.62,23055.34 5186.25,23057.78"/>
        <lane id=":1005660219_0_1" index="1" disallow="bicycle tram rail_urban rail rail_electric rail_fast ship" speed="16.67" length="8.65" shape="5179.29,23050.26 5180.01,23052.66 5181.24,23054.10 5182.43,23055.54 5183.06,23057.95"/>
        <lane id=":1005660219_0_2" index="2" disallow="bicycle tram rail_urban rail rail_electric rail_fast ship" speed="16.67" length="8.65" shape="5176.11,23050.55 5176.82,23052.91 5178.04,23054.33 5179.23,23055.75 5179.86,23058.12"/>
        <lane id=":1005660219_0_3" index="3" disallow="bicycle tram rail_urban rail rail_electric rail_fast ship" speed="16.67" length="8.65" shape="5172.92,23050.84 5173.63,23053.17 5174.85,23054.56 5176.04,23055.95 5176.66,23058.29"/>
        <lane id=":1005660219_0_4" index="4" disallow="bicycle tram rail_urban rail rail_electric rail_fast ship" speed="16.67" length="8.65" shape="5169.73,23051.13 5170.44,23053.43 5171.66,23054.79 5172.85,23056.16 5173.47,23058.46"/>
    </edge>
    <edge id=":10093671407_0" function="internal">
        <lane id=":10093671407_0_0" index="0" disallow="pedestrian tram rail_urban rail rail_electric rail_fast ship" speed="16.67" length="0.30" shape="3704.00,3588.94 3704.05,3588.65"/>
        <lane id=":10093671407_0_1" index="1" disallow="pedestrian tram rail_urban rail rail_electric rail_fast ship" speed="16.67" length="0.30" shape="3707.15,3589.51 3707.21,3589.20"/>
    </edge>
    <edge id=":10093671408_0" function="internal">
        <lane id=":10093671408_0_0" index="0" disallow="pedestrian tram rail_urban rail rail_electric rail_fast ship" speed="16.67" length="0.20" shape="3724.27,3537.98 3724.25,3538.08"/>
        <lane id=":10093671408_0_1" index="1" disallow="pedestrian tram rail_urban rail rail_electric rail_fast ship" speed="16.67" length="0.20" shape="3721.18,3537.14 3721.11,3537.44"/>
    </edge>
    <edge id=":10093671415_0" function="internal">
        <lane id=":10093671415_0_0" index="0" disallow="pedestrian tram rail_urban rail rail_electric rail_fast ship" speed="16.67" length="0.30" shape="3663.60,4529.56 3663.57,4529.28"/>
        <lane id=":10093671415_0_1" index="1" disallow="pedestrian tram rail_urban rail rail_electric rail_fast ship" speed="16.67" length="0.30" shape="3666.78,4529.21 3666.74,4528.89"/>
    </edge>
    <edge id=":1044540155_0" function="internal">
        <lane id=":1044540155_0_0" index="0" disallow="tram rail_urban rail rail_electric rail_fast ship" speed="16.67" length="8.06" shape="3727.09,5442.54 3726.88,5450.57"/>
        <lane id=":1044540155_0_1" index="1" disallow="tram rail_urban rail rail_electric rail_fast ship" speed="16.67" length="8.06" shape="3723.89,5442.42 3723.68,5450.51"/>
    </edge>
    <edge id=":1044540155_2" function="internal">
        <lane id=":1044540155_2_0" index="0" disallow="pedestrian tram rail_urban rail rail_electric rail_fast ship" speed="13.01" length="5.09" shape="3714.08,5450.35 3714.46,5448.87 3715.36,5448.11 3716.48,5447.41 3717.54,5446.10"/>
        <lane id=":1044540155_2_1" index="1" disallow="pedestrian tram rail_urban rail rail_electric rail_fast ship" speed="11.56" length="5.09" shape="3717.28,5450.40 3717.64,5449.33 3718.49,5448.89 3719.51,5448.49 3720.39,5447.55"/>
    </edge>
    <edge id=":1044540373_0" function="internal">
        <lane id=":1044540373_0_0" index="0" disallow="pedestrian tram rail_urban rail rail_electric rail_fast ship" speed="16.67" length="3.11" shape="3749.16,3474.59 3748.85,3475.39 3748.86,3476.03 3748.89,3476.68 3748.62,3477.51"/>
        <lane id=":1044540373_0_1" index="1" disallow="pedestrian tram rail_urban rail rail_electric rail_fast ship" speed="16.67" length="3.11" shape="3746.44,3472.91 3746.10,3473.76 3746.10,3474.43 3746.11,3475.11 3745.81,3475.98"/>
    </edge>
    <edge id=":1067374811_0" function="internal">
        <lane id=":1067374811_0_0" index="0" disallow="pedestrian tram rail_urban rail rail_electric rail_fast ship" speed="16.67" length="8.90" shape="3638.13,6378.72 3637.09,6381.04 3635.66,6382.31 3634.21,6383.58 3633.10,6385.88"/>
        <lane id=":1067374811_0_1" index="1" disallow="pedestrian tram rail_urban rail rail_electric rail_fast ship" speed="16.67" length="8.90" shape="3635.01,6378.01 3633.98,6380.31 3632.55,6381.56 3631.11,6382.80 3630.00,6385.08"/>
    </edge>
    <edge id=":1067374811_2" function="internal">
        <lane id=":1067374811_2_0" index="0" disallow="pedestrian tram rail_urban rail rail_electric rail_fast ship" speed="16.67" length="8.38" shape="3623.81,6383.47 3623.92,6381.04 3623.21,6379.34 3622.48,6377.64 3622.52,6375.19"/>
        <lane id=":1067374811_2_1" index="1" disallow="pedestrian tram rail_urban rail rail_electric rail_fast ship" speed="16.67" length="8.38" shape="3626.90,6384.28 3627.02,6381.82 3626.32,6380.10 3625.60,6378.37 3625.65,6375.89"/>
        <lane id=":1067374811_2_2" index="2" disallow="pedestrian tram rail_urban rail rail_electric rail_fast ship" speed="16.67" length="8.38" shape="3626.90,6384.28 3628.77,6376.60"/>
    </edge>
    <edge id=":10763801773_0" function="internal">
        <lane id=":10763801773_0_0" index="0" disallow="pedestrian tram rail_urban rail rail_electric rail_fast ship" speed="8.22" length="7.75" shape="4136.00,2756.20 4135.54,2754.89 4134.22,2752.91 4132.74,2750.96 4131.78,2749.75"/>
    </edge>
    <edge id=":10763801773_1" function="internal">
        <lane id=":10763801773_1_0" index="0" disallow="pedestrian tram rail_urban rail rail_electric rail_fast ship" speed="16.67" length="7.01" shape="4136.00,2756.20 4137.83,2749.43"/>
        <lane id=":10763801773_1_1" index="1" disallow="pedestrian tram rail_urban rail rail_electric rail_fast ship" speed="16.67" length="7.01" shape="4139.08,2757.05 4140.92,2750.27"/>
    </edge>
    <edge id=":10763801787_0" function="internal">
        <lane id=":10763801787_0_0" index="0" disallow="pedestrian tram rail_urban rail rail_electric rail_fast ship" speed="10.48" length="9.88" shape="4142.62,2689.58 4144.98,2687.77 4146.89,2686.58 4148.19,2685.11 4148.74,2682.48"/>
    </edge>
    <edge id=":10763801787_1" function="internal">
        <lane id=":10763801787_1_0" index="0" disallow="pedestrian tram rail_urban rail rail_electric rail_fast ship" speed="16.67" length="8.58" shape="4148.45,2691.06 4148.74,2682.48"/>
        <lane id=":10763801787_1_1" index="1" disallow="pedestrian tram rail_urban rail rail_electric rail_fast ship" speed="16.67" length="8.58" shape="4151.65,2691.16 4151.93,2682.58"/>
    </edge>
    <edge id=":1097760047_0" function="internal">
        <lane id=":1097760047_0_0" index="0" disallow="pedestrian tram rail_urban rail rail_electric rail_fast ship" speed="16.67" length="0.26" shape="3714.26,3533.47 3714.33,3533.19"/>
        <lane id=":1097760047_0_1" index="1" disallow="pedestrian tram rail_urban rail rail_electric rail_fast ship" speed="16.67" length="0.26" shape="3717.39,3534.14 3717.44,3533.91"/>
    </edge>
    <edge id=":11118128391_0" function="internal">
        <lane id=":11118128391_0_0" index="0" disallow="pedestrian tram rail_urban rail rail_electric rail_fast ship" speed="12.02" length="7.94" shape="4157.85,2682.90 4158.20,2685.02 4159.27,2686.21 4160.73,2687.30 4162.26,2689.12"/>
    </edge>
    <edge id=":11118128391_1" function="internal">
        <lane id=":11118128391_1_0" index="0" disallow="pedestrian tram rail_urban rail rail_electric rail_fast ship" speed="16.67" length="7.18" shape="4157.85,2682.90 4157.91,2685.03 4158.16,2686.48 4158.41,2687.94 4158.44,2690.06"/>
        <lane id=":11118128391_1_1" index="1" disallow="pedestrian tram rail_urban rail rail_electric rail_fast ship" speed="16.67" length="7.18" shape="4154.65,2682.79 4154.71,2684.90 4154.97,2686.34 4155.21,2687.78 4155.24,2689.90"/>
    </edge>
    <edge id=":1118539497_0" function="internal">
        <lane id=":1118539497_0_0" index="0" disallow="pedestrian tram rail_urban rail rail_electric rail_fast ship" speed="16.67" length="8.30" shape="1544.75,15505.26 1544.92,15502.93 1544.88,15501.33 1544.81,15499.73 1544.90,15497.39"/>
        <lane id=":1118539497_0_1" index="1" disallow="pedestrian tram rail_urban rail rail_electric rail_fast ship" speed="16.67" length="8.30" shape="1544.75,15505.26 1545.42,15502.91 1546.48,15501.45 1547.50,15500.00 1548.09,15497.64"/>
        <lane id=":1118539497_0_2" index="2" disallow="pedestrian tram rail_urban rail rail_electric rail_fast ship" speed="16.67" length="8.30" shape="1547.92,15505.63 1548.61,15503.24 1549.66,15501.76 1550.69,15500.28 1551.28,15497.88"/>
    </edge>
    <edge id=":11217725904_0" function="internal">
        <lane id=":11217725904_0_0" index="0" allow="private emergency authority army vip passenger hov taxi bus coach delivery truck trailer motorcycle evehicle custom1 custom2" speed="16.67" length="0.10" shape="4793.05,21020.77 4793.05,21020.77"/>
        <lane id=":11217725904_0_1" index="1" allow="private emergency authority army vip passenger hov taxi bus coach delivery truck trailer motorcycle evehicle custom1 custom2" speed="16.67" length="0.10" shape="4790.00,21021.73 4790.00,21021.73"/>
        <lane id=":11217725904_0_2" index="2" allow="private emergency authority army vip passenger hov taxi bus coach delivery truck trailer motorcycle evehicle custom1 custom2" speed="16.67" length="0.10" shape="4786.94,21022.69 4786.94,21022.69"/>
        <lane id=":11217725904_0_3" index="3" allow="private emergency authority army vip passenger hov taxi bus coach delivery truck trailer motorcycle evehicle custom1 custom2" speed="16.67" length="0.10" shape="4783.89,21023.65 4783.89,21023.65"/>
    </edge>
    <edge id=":11366598506_0" function="internal">
        <lane id=":11366598506_0_0" index="0" allow="private emergency authority army vip passenger hov taxi bus coach delivery truck trailer motorcycle evehicle custom1 custom2" speed="11.11" length="8.21" shape="5095.24,22451.93 5094.73,22449.57 5094.01,22448.04 5093.30,22446.50 5092.79,22444.14"/>
        <lane id=":11366598506_0_1" index="1" allow="private emergency authority army vip passenger hov taxi bus coach delivery truck trailer motorcycle evehicle custom1 custom2" speed="11.11" length="8.21" shape="5095.24,22451.93 5095.23,22449.52 5095.61,22447.86 5095.98,22446.21 5095.97,22443.80"/>
    </edge>
    <edge id=":114537744_0" function="internal">
        <lane id=":114537744_0_0" index="0" disallow="bicycle tram rail_urban rail rail_electric rail_fast ship" speed="16.67" length="22.17" shape="1845.67,17030.67 1866.01,17039.50"/>
        <lane id=":114537744_0_1" index="1" disallow="bicycle tram rail_urban rail rail_electric rail_fast ship" speed="16.67" length="22.17" shape="1844.60,17033.69 1864.94,17042.51"/>
    </edge>
    <edge id=":114537744_2" function="internal">
        <lane id=":114537744_2_0" index="0" allow="private emergency authority army vip passenger hov taxi bus coach delivery truck trailer motorcycle evehicle custom1 custom2" speed="16.67" length="22.91" shape="1844.60,17033.69 1850.99,17036.28 1855.21,17038.88 1858.61,17042.25 1862.56,17047.12"/>
        <lane id=":114537744_2_1" index="1" allow="private emergency authority army vip passenger hov taxi bus coach delivery truck trailer motorcycle evehicle custom1 custom2" speed="16.67" length="22.48" shape="1843.53,17036.70 1849.74,17039.27 1853.76,17041.89 1857.02,17045.29 1860.91,17050.18"/>
    </edge>
    <edge id=":114537804_0" function="internal">
        <lane id=":114537804_0_0" index="0" disallow="bicycle tram rail_urban rail rail_electric rail_fast ship" speed="13.17" length="9.83" shape="1842.91,17183.97 1841.33,17186.42 1839.45,17187.87 1838.06,17189.34 1837.98,17191.86"/>
    </edge>
    <edge id=":114537804_1" function="internal">
        <lane id=":114537804_1_0" index="0" disallow="bicycle tram rail_urban rail rail_electric rail_fast ship" speed="16.67" length="9.15" shape="1842.91,17183.97 1839.45,17193.06"/>
        <lane id=":114537804_1_1" index="1" disallow="bicycle tram rail_urban rail rail_electric rail_fast ship" speed="16.67" length="9.15" shape="1839.89,17182.91 1836.86,17190.93"/>
    </edge>
    <edge id=":11909241283_0" function="internal">
        <lane id=":11909241283_0_0" index="0" allow="private emergency authority army vip passenger hov taxi bus coach delivery truck trailer motorcycle evehicle custom1 custom2" speed="27.78" length="3.31" shape="4334.75,19835.33 4336.77,19837.96"/>
        <lane id=":11909241283_0_1" index="1" allow="private emergency authority army vip passenger hov taxi bus coach delivery truck trailer motorcycle evehicle custom1 custom2" speed="27.78" length="3.31" shape="4332.21,19837.28 4334.23,19839.91"/>
        <lane id=":11909241283_0_2" index="2" allow="private emergency authority army vip passenger hov taxi bus coach delivery truck trailer motorcycle evehicle custom1 custom2" speed="27.78" length="3.31" shape="4329.67,19839.22 4331.69,19841.85"/>
        <lane id=":11909241283_0_3" index="3" allow="private emergency authority army vip passenger hov taxi bus coach delivery truck trailer motorcycle evehicle custom1 custom2" speed="27.78" length="3.31" shape="4327.13,19841.17 4329.15,19843.80"/>
    </edge>
    <edge id=":11909241283_4" function="internal">
        <lane id=":11909241283_4_0" index="0" allow="private emergency authority army vip passenger hov taxi bus coach delivery truck trailer motorcycle evehicle custom1 custom2" speed="19.45" length="3.32" shape="4342.32,19829.52 4344.39,19832.12"/>
        <lane id=":11909241283_4_1" index="1" allow="private emergency authority army vip passenger hov taxi bus coach delivery truck trailer motorcycle evehicle custom1 custom2" speed="19.45" length="3.32" shape="4339.78,19831.47 4341.85,19834.07"/>
        <lane id=":11909241283_4_2" index="2" allow="private emergency authority army vip passenger hov taxi bus coach delivery truck trailer motorcycle evehicle custom1 custom2" speed="19.45" length="3.32" shape="4337.24,19833.42 4339.31,19836.01"/>
    </edge>
    <edge id=":12067308_0" function="internal">
        <lane id=":12067308_0_0" index="0" disallow="pedestrian bicycle tram rail_urban rail rail_electric rail_fast ship" speed="16.67" length="0.84" shape="5409.07,24872.36 5407.92,24872.27"/>
        <lane id=":12067308_0_1" index="1" disallow="pedestrian bicycle tram rail_urban rail rail_electric rail_fast ship" speed="16.67" length="0.84" shape="5409.25,24869.17 5408.26,24869.09"/>
        <lane id=":12067308_0_2" index="2" disallow="pedestrian bicycle tram rail_urban rail rail_electric rail_fast ship" speed="16.67" length="0.84" shape="5409.44,24865.97 5408.60,24865.91"/>
        <lane id=":12067308_0_3" index="3" disallow="pedestrian bicycle tram rail_urban rail rail_electric rail_fast ship" speed="16.67" length="0.84" shape="5409.63,24862.78 5408.94,24862.72"/>
        <lane id=":12067308_0_4" index="4" disallow="pedestrian bicycle tram rail_urban rail rail_electric rail_fast ship" speed="16.67" length="0.84" shape="5409.81,24859.59 5409.28,24859.54"/>
    </edge>
    <edge id=":1257898386_0" function="internal">
        <lane id=":1257898386_0_0" index="0" disallow="pedestrian tram rail_urban rail rail_electric rail_fast ship" speed="16.67" length="8.15" shape="2081.61,12224.67 2081.74,12227.07 2082.36,12228.68 2083.01,12230.30 2083.21,12232.71"/>
        <lane id=":1257898386_0_1" index="1" disallow="pedestrian tram rail_urban rail rail_electric rail_fast ship" speed="16.67" length="8.15" shape="2081.61,12224.67 2081.24,12227.02 2080.77,12228.59 2080.32,12230.17 2080.02,12232.52"/>
        <lane id=":1257898386_0_2" index="2" disallow="pedestrian tram rail_urban rail rail_electric rail_fast ship" speed="16.67" length="8.15" shape="2078.42,12224.39 2078.05,12226.76 2077.58,12228.36 2077.12,12229.95 2076.82,12232.33"/>
    </edge>
    <edge id=":1272285052_0" function="internal">
        <lane id=":1272285052_0_0" index="0" disallow="bicycle tram rail_urban rail rail_electric rail_fast ship" speed="16.67" length="8.21" shape="6713.81,24896.14 6716.23,24896.15 6717.89,24895.79 6719.54,24895.42 6721.96,24895.44"/>
        <lane id=":1272285052_0_1" index="1" disallow="bicycle tram rail_urban rail rail_electric rail_fast ship" speed="16.67" length="8.21" shape="6713.81,24896.14 6716.17,24896.65 6717.70,24897.38 6719.24,24898.10 6721.60,24898.62"/>
        <lane id=":1272285052_0_2" index="2" disallow="bicycle tram rail_urban rail rail_electric rail_fast ship" speed="16.67" length="8.21" shape="6713.47,24899.32 6715.82,24899.83 6717.35,24900.56 6718.88,24901.28 6721.23,24901.80"/>
        <lane id=":1272285052_0_3" index="3" disallow="bicycle tram rail_urban rail rail_electric rail_fast ship" speed="16.67" length="8.21" shape="6713.12,24902.50 6715.47,24903.01 6716.99,24903.74 6718.52,24904.46 6720.87,24904.98"/>
    </edge>
    <edge id=":1294068585_0" function="internal">
        <lane id=":1294068585_0_0" index="0" disallow="pedestrian tram rail_urban rail rail_electric rail_fast ship" speed="14.34" length="17.04" shape="4361.85,2032.32 4358.59,2034.04 4355.56,2036.22 4352.79,2039.42 4350.33,2044.21"/>
    </edge>
    <edge id=":1294068585_1" function="internal">
        <lane id=":1294068585_1_0" index="0" disallow="pedestrian tram rail_urban rail rail_electric rail_fast ship" speed="16.67" length="16.11" shape="4355.79,2029.03 4350.33,2044.21"/>
        <lane id=":1294068585_1_1" index="1" disallow="pedestrian tram rail_urban rail rail_electric rail_fast ship" speed="16.67" length="16.11" shape="4352.79,2027.90 4347.36,2043.04"/>
    </edge>
    <edge id=":1298520594_0" function="internal">
        <lane id=":1298520594_0_0" index="0" allow="private emergency authority army vip passenger hov taxi bus coach delivery truck trailer motorcycle evehicle custom1 custom2" speed="19.45" length="3.11" shape="1474.28,17409.75 1477.23,17410.75"/>
    </edge>
    <edge id=":1298520594_1" function="internal">
        <lane id=":1298520594_1_0" index="0" allow="private emergency authority army vip passenger hov taxi bus coach delivery truck trailer motorcycle evehicle custom1 custom2" speed="27.78" length="3.25" shape="1473.15,17412.74 1476.17,17413.86"/>
        <lane id=":1298520594_1_1" index="1" allow="private emergency authority army vip passenger hov taxi bus coach delivery truck trailer motorcycle evehicle custom1 custom2" speed="27.78" length="3.25" shape="1472.01,17415.73 1475.07,17416.87"/>
    </edge>
    <edge id=":1329901724_0" function="internal">
        <lane id=":1329901724_0_0" index="0" allow="private emergency authority army vip passenger hov taxi bus coach delivery truck trailer motorcycle evehicle custom1 custom2" speed="27.78" length="0.29" shape="5053.82,22038.68 5053.89,22039.05"/>
        <lane id=":1329901724_0_1" index="1" allow="private emergency authority army vip passenger hov taxi bus coach delivery truck trailer motorcycle evehicle custom1 custom2" speed="27.78" length="0.29" shape="5050.68,22039.32 5050.74,22039.63"/>
        <lane id=":1329901724_0_2" index="2" allow="private emergency authority army vip passenger hov taxi bus coach delivery truck trailer motorcycle evehicle custom1 custom2" speed="27.78" length="0.29" shape="5047.54,22039.96 5047.59,22040.21"/>
        <lane id=":1329901724_0_3" index="3" allow="private emergency authority army vip passenger hov taxi bus coach delivery truck trailer motorcycle evehicle custom1 custom2" speed="27.78" length="0.29" shape="5044.41,22040.60 5044.45,22040.80"/>
    </edge>
    <edge id=":1430973212_0" function="internal">
        <lane id=":1430973212_0_0" index="0" disallow="pedestrian tram rail_urban rail rail_electric rail_fast ship" speed="16.67" length="7.74" shape="2043.91,12371.72 2044.62,12369.66 2044.49,12368.05 2044.32,12366.41 2044.90,12364.29"/>