<?xml version="1.0" encoding="UTF-8"?>

<routes xmlns:xsi="http://www.w3.org/2001/XMLSchema-instance" xsi:noNamespaceSchemaLocation="http://sumo.dlr.de/xsd/routes_file.xsd">

<!-- Vehicles -->
    <!-- <vType id="valid-Bus" vClass="bus" color="blue"/>
    <vType id="valid-Car" vClass="passenger" color="yellow" maxSpeed= "4.0"/>
    <vType id="valid-Jeep" vClass="passenger" color="magenta"/>
    <vType id="valid-Motor" vClass="motorcycle" color="green" maxSpeed= "4.0"/> -->

    <vType id="valid-Bus" vClass="bus" color="blue" maxSpeed= "8.0"/>
    <vType id="valid-Car" vClass="passenger" color="yellow" maxSpeed= "8.0"/>
    <vType id="valid-Jeep" vClass="passenger" color="magenta"/>
    <vType id="valid-Motor" vClass="motorcycle" color="green" maxSpeed= "7.0"/>
<!-- Routes -->

    <route id="valid-City-Hall" edges="1054315838#0" color="0,128,128"/>
    <route id="valid-cavitex-Bacoor" edges="28740343 857127171 676675609 676675609-AddedOffRampEdge 650299591 4486322 613962959 2670552 2670552-AddedOffRampEdge 575288141#1 540197124#0 540197124#1 540197124#2 568975568 492209951 1074261077 568975570-AddedOnRampEdge 568975570 563743937-AddedOnRampEdge 563743937 191681722 564221897 109733602 563748264 162328085 164277298" color="0,128,128"/>
    <route id="valid-cavitex-stDom" edges="352801326 1054315845" color="0,128,128"/>
    <route id="valid-divimart" edges="863419980#0 665515516#1 665515518#1 533386346 665787499 665787524 532222568" color="0,128,128"/>
    <route id="valid-end-south" edges="-111987075 -879177025 -642893603 -872215578 871213663 1103029872 1033118917 651079971 660352590 651079972 114213935#1 -563021933" color="0,128,128"/>
    <route id="valid-south-sm" edges="651079976 573710407 993441705 767517245 775185678 894843877#1 -690613619 -690613617 -918082989 -690613625" color="0,128,128"/>
    <route id="valid-super8-town" edges="109981573 -183543979 -282194769" color="0,128,128"/>
    <route id="valid_baclaran-cavitex" edges="762672808 762688381 632727188 909967551 909967551-AddedOffRampEdge 576201844 156782313 644875495-AddedOnRampEdge 644875495 644875492#1 667228839-AddedOnRampEdge 667228839 840378998 644875507#0 644875507#1 644875520 1092898261 1276265244 1276265240 22738849#0 245317928-AddedOnRampEdge 245317928 711708395 1074926268 711708392 711708392-AddedOffRampEdge 245317915#1 688086638-AddedOnRampEdge 688086638 645165804#0 369829194 245317930 245317930-AddedOffRampEdge 245317933#0" color="0,128,128"/>

<!-- Flows -->
    <flow id="Baclaran-Cavitex-Flow" type="valid-Car" begin = "0" end= "200" number = "50" route = "valid_baclaran-cavitex" departLane = "0" arrivalLane = "current" />
    <flow id="Baclaran-Cavitex-Flow-1" type="valid-Car" begin = "0" end= "200" number = "15" route = "valid_baclaran-cavitex" departLane = "1" arrivalLane = "current" />
    <flow id="Baclaran-Cavitex-Flow-2" type="valid-Car" begin = "5" end= "200" number = "15" route = "valid_baclaran-cavitex" departLane = "2" arrivalLane = "current" />
    <flow id="Baclaran-Cavitex-Flow-Bus" type="valid-Bus" begin = "10" end= "200" number = "5" route = "valid_baclaran-cavitex" departLane = "0" arrivalLane = "current" />

    <flow id="Cavitex-Bacoor-Flow" type="valid-Car" begin = "1450" end="1600" number = "20" route = "valid-cavitex-Bacoor" departLane = "1" arrivalLane = "current" />
    <flow id="Cavitex-Bacoor-Flow-Bus" type="valid-Bus" begin = "1420" end="1600" number = "3" route = "valid-cavitex-Bacoor" departLane = "1" arrivalLane = "current" />
    <flow id="Cavitex-Bacoor-Flow-1" type="valid-Car" begin = "1500" end="1600" number = "20" route = "valid-cavitex-Bacoor" departLane = "2" arrivalLane = "current" />

    <flow id="Cavitex-stDom-Flow" type="valid-Car" begin = "1720" end= "1900" number = "25" route = "valid-cavitex-stDom" departLane = "1" arrivalLane = "current" />
    <flow id="Cavitex-stDom-Flow-Bus" type="valid-Bus" begin = "1750"  end= "1900" number = "5" route = "valid-cavitex-stDom" departLane = "1" arrivalLane = "current" />
    <flow id="Cavitex-stDom-Flow-Motor" type="valid-Motor" begin = "1800"  end= "1900" number = "20" route = "valid-cavitex-stDom" departLane = "1" arrivalLane = "current" />
    <flow id="Cavitex-stDom-Flow-Motor-1" type="valid-Motor" begin = "1830"  end= "1900" number = "20" route = "valid-cavitex-stDom" departLane = "2" arrivalLane = "current" />
    <flow id="Cavitex-stDom-Flow-1" type="valid-Car" begin = "1860"  end= "1900" number = "25" route = "valid-cavitex-stDom" departLane = "2" arrivalLane = "current" />

    <flow id="City-Hall-Flow" type="valid-Car" begin = "1820" end="2000" number = "50" route = "valid-City-Hall" departLane = "1" arrivalLane = "current" />
    <flow id="City-Hall-Flow-1" type="valid-Car" begin = "1860" end="2000" number = "50" route = "valid-City-Hall" departLane = "2" arrivalLane = "current" />
    <flow id="City-Hall-Flow-Motor" type="valid-Motor" begin = "1830" end="2000" number = "30" route = "valid-City-Hall" departLane = "1" arrivalLane = "current" />
    <flow id="City-Hall-Flow-Motor-1" type="valid-Motor" begin = "1890" end="2000" number = "30" route = "valid-City-Hall" departLane = "2" arrivalLane = "current" />

    <flow id="Divimart-Flow" type="valid-Car" begin = "2000" end= "2200" number = "50" route = "valid-divimart" departLane = "1" arrivalLane = "current" />
    <flow id="Divimart-Flow-1" type="valid-Car" begin = "2100" end= "2200" number = "50" route = "valid-divimart" departLane = "2" arrivalLane = "current" />
    <flow id="Divimart-Flow-Motor" type="valid-Motor" begin = "2050" end= "2200" number = "30" route = "valid-divimart" departLane = "1" arrivalLane = "current" />
    <flow id="Divimart-Flow-Motor-1" type="valid-Motor" begin = "2150" end= "2200" number = "30" route = "valid-divimart" departLane = "2" arrivalLane = "current" />

    <flow id="Super8-Town-Flow" type="valid-Car" begin = "2400" end="2550" number = "10" route = "valid-super8-town" departLane = "1" arrivalLane = "current" />
    <flow id="Super8-Town-Flow-1" type="valid-Car" begin = "2450" end="2550" number = "10" route = "valid-super8-town" departLane = "2" arrivalLane = "current" />
    <flow id="Super8-Town-Flow-Motor" type="valid-Motor" begin = "2500" end="2550" number = "5" route = "valid-super8-town" departLane = "1" arrivalLane = "current" />
    <flow id="Super8-Town-Flow-Motor-1" type="valid-Motor" begin = "2030" end="2550" number = "5" route = "valid-super8-town" departLane = "2" arrivalLane = "current" />

    <flow id="South-SM-Flow" type="valid-Car" begin = "2700" end="2900" number = "20" route = "valid-south-sm" departLane = "1" arrivalLane = "current" />
    <flow id="South-SM-Flow-1" type="valid-Car" begin = "2750" end="2900" number = "20" route = "valid-south-sm" departLane = "2" arrivalLane = "current" />
    <flow id="South-SM-Flow-Motor" type="valid-Motor" begin = "2725" end="2900" number = "10" route = "valid-south-sm" departLane = "1" arrivalLane = "current" />
    <flow id="South-SM-Flow-Motor-1" type="valid-Motor" begin = "2775" end="2900" number = "10" route = "valid-south-sm" departLane = "2" arrivalLane = "current" />

    <flow id="End-South-Flow" type="valid-Car" begin = "3000" end= "3200" number = "10" route = "valid-end-south" departLane = "1" arrivalLane = "current" />
    <flow id="End-South-Flow-1" type="valid-Car" begin = "3050" end= "3200" number = "10" route = "valid-end-south" departLane = "0" arrivalLane = "current" />
    <flow id="End-South-Flow-Motor" type="valid-Motor" begin = "3025" end= "3200" number = "15" route = "valid-end-south" departLane = "1" arrivalLane = "current" />
    <flow id="End-South-Flow-Motor-1" type="valid-Motor" begin = "3100" end= "3200" number = "15" route = "valid-end-south" departLane = "0" arrivalLane = "current" />

<!-- Drop Off sa Divimart -->

</routes>