<?xml version="1.0" encoding="UTF-8"?>

<routes xmlns:xsi="http://www.w3.org/2001/XMLSchema-instance" xsi:noNamespaceSchemaLocation="http://sumo.dlr.de/xsd/routes_file.xsd">

<!-- Drop Off sa Divimart -->

<person id= "south_p_1" depart = "0">
    <walk from="761980615" busStop="bs_51" duration="1" />
    <ride from="761980615" busStop="bs_53" lines= "UV"/>
</person>

<person id= "south_p_2" depart = "0">
    <walk from="761980615" busStop="bs_51" duration="1" />
    <ride from="761980615" busStop="bs_53" lines= "UV"/>
</person>

<person id= "south_p_3" depart = "0">
    <walk from="761980615" busStop="bs_51" duration="1" />
    <ride from="761980615" busStop="bs_53" lines= "UV"/>
</person>

<!-- Drop Off sa Super 8-->

<person id= "south_p_4" depart = "0">
    <walk from="761980615" busStop="bs_51" duration="1" />
    <ride from="761980615" busStop="bs_58" lines= "UV"/>
</person>

<person id= "south_p_5" depart = "0">
    <walk from="761980615" busStop="bs_51" duration="1" />
    <ride from="761980615" busStop="bs_58" lines= "UV"/>
</person>

<!-- Drop Off sa Town-->

<person id= "south_p_6" depart = "0">
    <walk from="761980615" busStop="bs_51" duration="1" />
    <ride from="761980615" busStop="bs_62" lines= "UV"/>
</person>

<person id= "south_p_7" depart = "0">
    <walk from="761980615" busStop="bs_51" duration="1" />
    <ride from="761980615" busStop="bs_62" lines= "UV"/>
</person>

<!-- Drop Off sa Avida-->

<person id= "south_p_8" depart = "0">
    <walk from="761980615" busStop="bs_51" duration="1" />
    <ride from="761980615" busStop="bs_71" lines= "UV"/>
</person>

<person id= "south_p_9" depart = "0">
    <walk from="761980615" busStop="bs_51" duration="1" />
    <ride from="761980615" busStop="bs_71" lines= "UV"/>
</person>

<!-- Drop Off sa District-->

<person id= "south_p_10" depart = "0">
    <walk from="761980615" busStop="bs_51" duration="1" />
    <ride from="761980615" busStop="bs_72" lines= "UV"/>
</person>

<person id= "south_p_11" depart = "0">
    <walk from="761980615" busStop="bs_51" duration="1" />
    <ride from="761980615" busStop="bs_72" lines= "UV"/>
</person>

<!-- Drop Off sa San Marino-->

<person id= "south_p_12" depart = "0">
    <walk from="761980615" busStop="bs_51" duration="1" />
    <ride from="761980615" busStop="bs_93" lines= "UV"/>
</person>

<person id= "south_p_13" depart = "0">
    <walk from="761980615" busStop="bs_51" duration="1" />
    <ride from="761980615" busStop="bs_93" lines= "UV"/>
</person>

<!-- Last Drop Off -->

<person id= "south_p_14" depart = "0">
    <walk from="761980615" busStop="bs_51" duration="1" />
    <ride from="761980615" busStop="bs_95" lines= "UV"/>
</person>

<person id= "south_p_15" depart = "0">
    <walk from="761980615" busStop="bs_51" duration="1" />
    <ride from="761980615" busStop="bs_95" lines= "UV"/>
</person>

<person id= "south_p_16" depart = "0">
    <walk from="761980615" busStop="bs_51" duration="1" />
    <ride from="761980615" busStop="bs_95" lines= "UV"/>
</person>

</routes>