<?xml version="1.0" encoding="UTF-8"?>

<!-- generated on 2024-06-16 23:09:26 by Eclipse SUMO netedit Version 1.19.0
-->

<additional xmlns:xsi="http://www.w3.org/2001/XMLSchema-instance" xsi:noNamespaceSchemaLocation="http://sumo.dlr.de/xsd/additional_file.xsd">
    <!-- StoppingPlaces -->
    <busStop id="bs_0" lane="583701022_1" startPos="25.52" endPos="35.52"/>
    <busStop id="bs_1" lane="583701022_1" startPos="160.82" endPos="170.82"/>
    <busStop id="bs_10" lane="660352567_1" startPos="356.09" endPos="366.09"/>
    <busStop id="bs_11" lane="660352567_1" startPos="533.27" endPos="543.27"/>
    <busStop id="bs_12" lane="660352567_1" startPos="659.73" endPos="669.73"/>
    <busStop id="bs_13" lane="660352585_1" startPos="85.20" endPos="95.20"/>
    <busStop id="bs_14" lane="660352585_1" startPos="215.45" endPos="225.45"/>
    <busStop id="bs_15" lane="660352585_1" startPos="362.71" endPos="372.71"/>
    <busStop id="bs_16" lane="660352585_1" startPos="476.20" endPos="486.20"/>
    <busStop id="bs_17" lane="660352585_1" startPos="588.09" endPos="598.09"/>
    <busStop id="bs_18" lane="660352585_1" startPos="695.55" endPos="705.55"/>
    <busStop id="bs_19" lane="660352585_1" startPos="773.59" endPos="783.59"/>
    <busStop id="bs_2" lane="583701022_1" startPos="389.52" endPos="399.52"/>
    <busStop id="bs_20" lane="1103029833_1" startPos="68.67" endPos="78.67"/>
    <busStop id="bs_21" lane="1103029833_1" startPos="346.24" endPos="356.24"/>
    <busStop id="bs_22" lane="1103029833_1" startPos="808.02" endPos="818.02"/>
    <busStop id="bs_23" lane="1103029873_1" startPos="133.48" endPos="143.48"/>
    <busStop id="bs_24" lane="1103029873_1" startPos="681.77" endPos="691.77"/>
    <busStop id="bs_25" lane="872215569_1" startPos="362.38" endPos="372.38"/>
    <busStop id="bs_26" lane="879177025_1" startPos="26.70" endPos="36.70"/>
    <busStop id="bs_27" lane="111987010_1" startPos="6.08" endPos="16.08"/>
    <busStop id="bs_28" lane="111987010_1" startPos="379.76" endPos="389.76"/>
    <busStop id="bs_29" lane="111987010_1" startPos="848.45" endPos="858.45"/>
    <busStop id="bs_3" lane="583701022_1" startPos="688.11" endPos="698.11"/>
    <busStop id="bs_30" lane="-797720294_1" startPos="88.57" endPos="98.57"/>
    <busStop id="bs_31" lane="-651079992_1" startPos="10.57" endPos="20.57"/>
    <busStop id="bs_32" lane="-651079992_1" startPos="193.08" endPos="203.08"/>
    <busStop id="bs_33" lane="690977719_1" startPos="14.02" endPos="24.02"/>
    <busStop id="bs_34" lane="690977719_1" startPos="508.50" endPos="518.50"/>
    <busStop id="bs_35" lane="690977719_1" startPos="1069.93" endPos="1079.93"/>
    <busStop id="bs_36" lane="820090516_1" startPos="93.20" endPos="103.20"/>
    <busStop id="bs_37" lane="109971518#0_1" startPos="45.62" endPos="55.62"/>
    <busStop id="bs_38" lane="109971518#0_1" startPos="542.90" endPos="552.90"/>
    <busStop id="bs_39" lane="109971518#0_1" startPos="1390.61" endPos="1400.61"/>
    <busStop id="bs_4" lane="583701022_1" startPos="856.75" endPos="866.75"/>
    <busStop id="bs_40" lane="130048909#0_1" startPos="388.74" endPos="398.74"/>
    <busStop id="bs_41" lane="130048909#0_1" startPos="799.40" endPos="809.40"/>
    <busStop id="bs_42" lane="560538906#1_1" startPos="28.91" endPos="38.91"/>
    <busStop id="bs_43" lane="813394289#0_1" startPos="687.98" endPos="697.98"/>
    <busStop id="bs_44" lane="564298119#1_1" startPos="19.90" endPos="29.90"/>
    <busStop id="bs_45" lane="621030728_1" startPos="111.12" endPos="121.12"/>
    <busStop id="bs_46" lane="245238968_1" startPos="224.69" endPos="234.69"/>
    <busStop id="bs_47" lane="369829204#0_1" startPos="92.35" endPos="102.35"/>
    <busStop id="bs_48" lane="22738847_1" startPos="259.29" endPos="269.29"/>
    <busStop id="bs_49" lane="667228840_1" startPos="164.86" endPos="174.86"/>
    <busStop id="bs_5" lane="584825959_1" startPos="379.50" endPos="389.50"/>
    <busStop id="bs_50" lane="111735143_1" startPos="4.29" endPos="14.29"/>
    <busStop id="bs_51" lane="761980615_1" startPos="6.15" endPos="16.15"/>
    <busStop id="bs_52" lane="1054315838#0_1" startPos="1332.47" endPos="1342.47"/>
    <busStop id="bs_53" lane="863419980#0_1" startPos="680.61" endPos="690.61"/>
    <busStop id="bs_54" lane="533386346_1" startPos="40.06" endPos="50.06"/>
    <busStop id="bs_55" lane="533386346_1" startPos="463.01" endPos="473.01"/>
    <busStop id="bs_56" lane="109981573_1" startPos="7.51" endPos="17.51"/>
    <busStop id="bs_57" lane="109981573_1" startPos="852.36" endPos="862.36"/>
    <busStop id="bs_58" lane="109981573_1" startPos="1354.64" endPos="1364.64"/>
    <busStop id="bs_59" lane="-183543979_1" startPos="28.86" endPos="38.86"/>
    <busStop id="bs_6" lane="584825959_1" startPos="730.45" endPos="740.45"/>
    <busStop id="bs_60" lane="-282194769_1" startPos="73.96" endPos="83.96"/>
    <busStop id="bs_61" lane="-282194769_1" startPos="638.93" endPos="648.93"/>
    <busStop id="bs_62" lane="-282194769_1" startPos="1130.47" endPos="1140.47"/>
    <busStop id="bs_63" lane="651079976_1" startPos="98.06" endPos="108.06"/>
    <busStop id="bs_64" lane="651079976_1" startPos="278.74" endPos="288.74"/>
    <busStop id="bs_65" lane="573710407_1" startPos="287.11" endPos="297.11"/>
    <busStop id="bs_66" lane="-690613625_1" startPos="5.57" endPos="15.57"/>
    <busStop id="bs_67" lane="-690613625_1" startPos="471.95" endPos="481.95"/>
    <busStop id="bs_68" lane="-690613625_1" startPos="845.06" endPos="855.06"/>
    <busStop id="bs_69" lane="-879177025_1" startPos="3.49" endPos="13.49"/>
    <busStop id="bs_7" lane="584825959_1" startPos="1031.26" endPos="1041.26"/>
    <busStop id="bs_70" lane="-642893603_1" startPos="358.97" endPos="368.97"/>
    <busStop id="bs_71" lane="871213663_1" startPos="240.05" endPos="250.05"/>
    <busStop id="bs_72" lane="871213663_1" startPos="787.06" endPos="797.06"/>
    <busStop id="bs_73" lane="1103029872_1" startPos="168.12" endPos="178.12"/>
    <busStop id="bs_74" lane="1103029872_1" startPos="632.53" endPos="642.53"/>
    <busStop id="bs_75" lane="1103029872_1" startPos="911.58" endPos="921.58"/>
    <busStop id="bs_76" lane="651079971_1" startPos="118.41" endPos="128.41"/>
    <busStop id="bs_77" lane="651079971_1" startPos="198.23" endPos="208.23"/>
    <busStop id="bs_78" lane="651079971_1" startPos="304.93" endPos="314.93"/>
    <busStop id="bs_79" lane="651079971_1" startPos="406.36" endPos="416.36"/>
    <busStop id="bs_8" lane="584825959_1" startPos="1291.30" endPos="1301.30"/>
    <busStop id="bs_80" lane="651079971_1" startPos="523.99" endPos="533.99"/>
    <busStop id="bs_81" lane="660352590_1" startPos="140.85" endPos="150.85"/>
    <busStop id="bs_82" lane="660352590_1" startPos="265.18" endPos="275.18"/>
    <busStop id="bs_83" lane="114213935#1_1" startPos="10.79" endPos="20.79"/>
    <busStop id="bs_84" lane="114213935#1_1" startPos="136.86" endPos="146.86"/>
    <busStop id="bs_85" lane="114213935#1_1" startPos="320.05" endPos="330.05"/>
    <busStop id="bs_86" lane="114213935#1_1" startPos="542.18" endPos="552.18"/>
    <busStop id="bs_87" lane="114213935#1_1" startPos="724.45" endPos="734.45"/>
    <busStop id="bs_88" lane="114213935#1_1" startPos="988.45" endPos="998.45"/>
    <busStop id="bs_89" lane="114213935#1_1" startPos="1277.69" endPos="1287.69"/>
    <busStop id="bs_9" lane="660352567_1" startPos="138.14" endPos="148.14"/>
    <busStop id="bs_90" lane="114213935#1_1" startPos="1631.82" endPos="1641.82"/>
    <busStop id="bs_91" lane="-563021933_1" startPos="37.57" endPos="47.57"/>
    <busStop id="bs_92" lane="-563021933_1" startPos="210.65" endPos="220.65"/>
    <busStop id="bs_93" lane="-563021933_1" startPos="502.42" endPos="512.42"/>
    <busStop id="bs_94" lane="-563021933_1" startPos="735.75" endPos="745.75"/>
    <busStop id="bs_95" lane="-563021933_1" startPos="874.29" endPos="884.29"/>
</additional>
