<?xml version="1.0" encoding="UTF-8"?>

<!-- generated on 2024-06-02 14:24:22 by Eclipse SUMO GUI Version 1.19.0
-->

<configuration xmlns:xsi="http://www.w3.org/2001/XMLSchema-instance" xsi:noNamespaceSchemaLocation="http://sumo.dlr.de/xsd/sumoConfiguration.xsd">

    <input>
        <net-file value="NoPolyGons-Full-route.net.xml"/>
    </input>

</configuration>
