<?xml version="1.0" encoding="UTF-8"?>


<routes xmlns:xsi="http://www.w3.org/2001/XMLSchema-instance" xsi:noNamespaceSchemaLocation="http://sumo.dlr.de/xsd/routes_file.xsd">
    <vtype id="UV"
        vclass = "passenger" guiShape="passenger/van" maxSpeed="10"
        personCapacity="16" color="1,0,0" boardingDuration="10"
        laneChangeModel="LC2013" latAlignment="right" lcPushy=".5" />

    <flow id="UVflow" type="UV" begin="0" end="500" number="1" from="583701022" to="628567782"/>
    <flow id="UVflow" type="UV" begin="0" end="500" number="1" from="628567782" to="583701022"/>

</routes>