<?xml version="1.0" encoding="UTF-8"?>

<!-- generated on 2024-06-25 23:46:25 by Eclipse SUMO netedit Version 1.19.0
-->

<routes xmlns:xsi="http://www.w3.org/2001/XMLSchema-instance" xsi:noNamespaceSchemaLocation="http://sumo.dlr.de/xsd/routes_file.xsd">
    <!-- VTypes -->
    <vType id="Bus" vClass="bus" color="blue"/>
    <vType id="Car" vClass="passenger" color="yellow"/>
    <vType id="Motor" vClass="motorcycle" color="green"/>
    <vType id = "Jeep" vClass="passenger" color="magenta"/>
    <vType id="UV" vClass="passenger" guiShape="passenger/van" color="red" personCapacity="16" boardingDuration="2.00" latAlignment="right" laneChangeModel="LC2013"/>
    <!-- Routes -->
    <route id="BP_route" edges="761980615 761980617 762672808 762688381 632727188 909967551 909967551-AddedOffRampEdge 576201844 156782313 644875495-AddedOnRampEdge 644875495 644875492#1 667228839-AddedOnRampEdge 667228839 840378998 644875507#0 644875507#1 644875520 1092898261 1276265244 1276265240 22738849#0 245317928-AddedOnRampEdge 245317928 711708395 1074926268 711708392 711708392-AddedOffRampEdge 245317915#1 688086638-AddedOnRampEdge 688086638 645165804#0 369829194 245317930 245317930-AddedOffRampEdge 245317933#0 649171196 28740343 857127171 676675609 676675609-AddedOffRampEdge 650299591 4486322 613962959 2670552 2670552-AddedOffRampEdge 575288141#1 540197124#0 540197124#1 540197124#2 568975568 492209951 1074261077 568975570-AddedOnRampEdge 568975570 563743937-AddedOnRampEdge 563743937 191681722 564221897 109733602 563748264 162328085 164277298 352801326 1054315845 1054315838#0 863419980#0 665515516#1 665515518#1 533386346 665787499 665787524 532222568 109981573 -183543979 -282194769 651079976 573710407 993441705 767517245 775185678 894843877#1 -690613619 -690613617 -918082989 -690613625 -111987075 -879177025 -642893603 -872215578 871213663 1103029872 1033118917 651079971 660352590 651079972 114213935#1 -563021933" color="red"/>
    <route id="PB_route" edges="583701022 584825959 660352567 1198531265 1198531266 660352585 114213938 1033118918 1103029833 544489112 662913537#0 1103029873 870991316 879172124 872215569 879177025 111987075 111987010 879172096 690613617 690613619 870991328 624604435#0 366952449#0 642896772 -797720294 -651079992 690977719 820090516 109971518#0 109971539#0 130048909#0 665515519#0 665515517 560538906#1 813394288 813394290#0 813394289#0 1103307016#0 555020953#0 564298119#1 200093474 23959414 306636237 306636445 306636445-AddedOffRampEdge 653015388 272985473 555020929 107773896 555020925#0 555020925#1 734379942#0 734379942#1 23959380 724670137 22730660 724670138 22730634 22730634-AddedOffRampEdge 555020891 568975575#0 568975575#1 568975566 555020886 575293226#0 575293226#1 563743939#0 563743939#1-AddedOnRampEdge 563743939#1 708734828-AddedOnRampEdge 708734828 699824385 4486320 856789357 1210746304 687100199 856789358 856820281 650299588 650299586 563743949 650299587 857127169 650299590 650299590-AddedOffRampEdge 649171195 621030749#0 621030728 245238968 678960768#0 369829204#0 355084527 632555219 22738847 245317925#0 423798481 644875508 840378999 840378999-AddedOffRampEdge 667228840 644875524 775216094 576201832 665068121 791530031 576201831 111735144 918504765 111735143 931457626 709834494 324152520#2 23952759 850329037 23952832 761980619 761980615" color="red"/>
    <route id="jeep_route" edges="583701022 584825959 660352567 1198531265 1198531266 660352585 114213938 1033118918 1103029833 544489112 662913537#0 1103029873 870991316 879172124 872215569 879177025 111987075 111987010 879172096 690613617 690613619 870991328 624604435#0 366952449#0 642896772 -797720294 -651079992 690977719 820090516 109971518#0 109971539#0 130048909#0 665515519#0 665515517 560538906#1 813394288 813394290#0 813394289#0 1103307016#0 555020953#0 564298119#1 200093474 23959414 306636237 306636445 306636445-AddedOffRampEdge 653015388 272985474 352801326 1054315845 1054315838#0 863419980#0 665515516#1 665515518#1 533386346 665787499 665787524 532222568 109981573 -183543979 -282194769 651079976 573710407 993441705 767517245 775185678 894843877#1 -690613619 -690613617 -918082989 -690613625 -111987075 -879177025 -642893603 -872215578 871213663 1103029872 1033118917 651079971 660352590 651079972 114213935#1 -563021933"/>
    <route id="r_0" edges="583701022 584825959 660352567 628567782" color="blue"/>
    <route id="r_1" edges="583701022 584825959 660352567 1198531265 1198531266 660352585 114213938 1033118918 1103029833 544489112 662913537#0 1103029873 870991316 879172124 872215569 879177025 111987075 111987010 879172096 690613617 690613619 870991328 427551860" color="blue"/>
    <route id="r_10" edges="1123774224-AddedOffRampEdge 914977492 775216094 4270515#0" color="blue"/>
    <route id="r_11" edges="1123774224-AddedOffRampEdge 914977492 775216094 576201832 665068121 791530031 576201831 111735144 918504765 111735143 931457626 709834494 363409071 762672808 762688381 632727190 909967549" color="blue"/>
    <route id="r_12" edges="836401380" color="blue"/>
    <route id="r_13" edges="230282896 836401382 836401382-AddedOffRampEdge" color="blue"/>
    <route id="r_14" edges="22770806 761811312 761980619 761980615 761980617 762672808 762688381 632727188 909967551 909967551-AddedOffRampEdge 644875491 644875503-AddedOnRampEdge" color="blue"/>
    <route id="r_15" edges="761811311 22770806 761811312 761980619 761980615 761980617 762672808 762688381 632727190 909967549" color="blue"/>
    <route id="r_16" edges="761811311 22770806 761811312 761980619 761980615 761980617 762672808 762688381 632727188 909967551 909967551-AddedOffRampEdge 576201844 156782313 644875495-AddedOnRampEdge 644875495 644875492#1 667228839-AddedOnRampEdge 667228839 840378998 644875507#0 644875507#1 644875520 1092898261 1276265244 1276265240 22738849#0 245317928-AddedOnRampEdge 245317928 711708395 1074926268 711708392 711708392-AddedOffRampEdge 40122556" color="blue"/>
    <route id="r_17" edges="1123774224-AddedOffRampEdge 914977491 644875495-AddedOnRampEdge 644875495 644875492#1 667228839-AddedOnRampEdge 667228839 840378998 644875507#0 644875507#1 644875520 1092898261 1276265244 1276265240 22738849#0 245317928-AddedOnRampEdge 245317928 711708395 1074926268 711708392 711708392-AddedOffRampEdge 40122556" color="blue"/>
    <route id="r_18" edges="761811311 22770806 761811312 761980619 761980615 761980617 762672808 762688381 632727188 909967551 909967551-AddedOffRampEdge 576201844 156782313 644875495-AddedOnRampEdge 644875495 644875492#1 667228839-AddedOnRampEdge 667228839 840378998 644875507#0 644875507#1 644875520 1092898261 1276265244 1276265240 22738849#0 245317928-AddedOnRampEdge 245317928 711708395 1074926268 711708392 711708392-AddedOffRampEdge 245317915#1 688086638-AddedOnRampEdge 688086638 645165804#0 369829194 245317930 245317930-AddedOffRampEdge 245317933#0 649171196 28740343 857127171 676675609 676675609-AddedOffRampEdge 650299591 4486322 613962959 2670552 2670552-AddedOffRampEdge 575288141#1 540197124#0 540197124#1 540197124#2 568975568 492209951 1074261077 568975570-AddedOnRampEdge 568975570 563743937-AddedOnRampEdge 563743937 191681722 564221897 109733602 563748264 162328085 164277299 1073924569 564298157 1073924568" color="blue"/>
    <route id="r_19" edges="540197115 540197124#1 540197124#2 568975568 492209951 1074261077 568975570-AddedOnRampEdge 568975570 563743937-AddedOnRampEdge 563743937 191681722 564221897 109733602 563748264 162328085 164277298 352801326 1054315845 1054315838#0 863419980#0 904684597" color="blue"/>
    <route id="r_2" edges="583701022 584825959 660352567 1198531265 1198531266 660352585 114213938 1033118918 1103029833 544489112 662913537#0 1103029873 870991316 879172124 872215569 879177025 111987075 111987010 879172096 690613617 690613619 870991328 624604435#0 366952449#0 642896772 -797720294 -651079992 690977719 820090516" color="blue"/>
    <route id="r_20" edges="417445357 665515518#1 533386346 665787499 665787524 532222568 109981573 -183543979 -282194769 651079976 573710407 993441705 651079990 158466192#0" color="blue"/>
    <route id="r_21" edges="870991315 872215569 879177025 111987075 111987010 879172096 690613617 690613619 870991328 427551860" color="blue"/>
    <route id="r_22" edges="1157435280 114213935#1 -563021933" color="blue"/>
    <route id="r_23" edges="22770806 761811312 761980619 761980615 761980617 762672808 762688381 632727188 909967551 909967551-AddedOffRampEdge 576201844 156782313 644875495-AddedOnRampEdge 644875495 644875492#1 667228839-AddedOnRampEdge 667228839 840378998 644875507#0 644875507#1 644875520 1092898261 1276265244 1276265240 22738849#0 245317928-AddedOnRampEdge 245317928 711708395 1074926268 711708392 711708392-AddedOffRampEdge 245317915#1 688086638-AddedOnRampEdge 688086638 645165804#0 369829194 245317930 245317930-AddedOffRampEdge 245317933#0 649171196 28740343 857127171 676675609 676675609-AddedOffRampEdge 650299591 4486322 613962959 2670552 2670552-AddedOffRampEdge 575288141#1 540197124#0 540197124#1 540197124#2 568975568 492209951 1074261077 568975570-AddedOnRampEdge 568975570 563743937-AddedOnRampEdge 563743937 191681722 564221897 109733602 563748264 162328085 164277298 352801326 1054315845 1054315838#0 863419980#0 665515516#1 665515518#1 533386346 665787499 665787524 532222568 109981573 -183543979 -282194769 651079976 573710407 993441705 767517245 775185678 894843877#1 -690613619 -690613617 -918082989 -690613625 -111987075 -879177025 -642893603 -872215578 871213663 1103029872 1033118917 651079971 660352590 1157435279" color="blue"/>
    <route id="r_24" edges="1123774224-AddedOffRampEdge 914977491 644875495-AddedOnRampEdge 644875495 644875492#1 667228839-AddedOnRampEdge 667228839 840378998 644875507#0 644875507#1 644875520 1076611437#0" color="blue"/>
    <route id="r_25" edges="109736541 555020918 114689782 162328085 164277298 352801326 1054315845 1054315838#0 863419980#0 904684597" color="blue"/>
    <route id="r_26" edges="417445357 665515518#1 533386346 665787499 665787524 532222568 109981573 -183543979 -282194769 651079976 573710407 993441705 767517245 775185678 894843877#1 -690613619 -690613617 -918082989 -690613625 -111987075 -879177025 -642893603 -872215578 871213663 1103029872 1033118917 651079971 660352590 651079972 114213935#1 -563021933" color="blue"/>
    <route id="r_27" edges="761811311 22770806 761811312 761980619 761980615 761980617 762672808 762688381 632727188 909967551 909967551-AddedOffRampEdge 576201844 156782313 644875495-AddedOnRampEdge 644875495 644875492#1 667228839-AddedOnRampEdge 667228839 840378998 644875507#0 644875507#1 644875520 1092898261 1276265244 1276265240 22738849#0 245317928-AddedOnRampEdge 245317928 711708395 1074926268 711708392 711708392-AddedOffRampEdge 245317915#1 688086638-AddedOnRampEdge 688086638 645165804#0 369829194 245317930 245317930-AddedOffRampEdge 245317933#0 649171196 28740343 857127171 676675609 676675609-AddedOffRampEdge 650299591 4486322 613962959 2670552 2670552-AddedOffRampEdge 575288141#1 540197124#0 540197124#1 540197124#2 568975568 492209951 1074261077 568975570-AddedOnRampEdge 568975570 563743937-AddedOnRampEdge 563743937 245317910 164850584 555020900" color="blue"/>
    <route id="r_28" edges="109736541 555020918 114689782 162328085 164277298 352801326 1054315845 1054315838#0 863419980#0 665515516#1 665515518#1 533386346 665787499 665787524 532222568 109981573 -183543979 -282194769 651079976 573710407 993441705 651079990 158466192#0" color="blue"/>
    <route id="r_29" edges="109736541 555020918 114689782 162328085 164277298 352801326 1054315845 1054315838#0 863419980#0 665515516#1 665515518#1 533386346 665787499 665787524 532222568 109981573 -183543979 -282194769 651079976 573710407 993441705 767517245 775185678 894843877#1 -690613619 -690613617 -918082989 -690613625 -111987075 -879177025 -642893603 -872215578 871213663 1103029872 1033118917 651079971 660352590 651079972 114213935#1 -563021933" color="blue"/>
    <route id="r_3" edges="583701022 584825959 660352567 1198531265 1198531266 660352585 114213938 1033118918 1103029833 544489112 662913537#0 1103029873 870991316 879172124 872215569 879177025 111987075 111987010 879172096 690613617 690613619 870991328 624604435#0 366952449#0 642896772 -797720294 -651079992 690977719 820090516 109971518#0 109971539#0 130048909#0 863419978" color="blue"/>
    <route id="r_30" edges="583701022 584825959 660352567 1198531265 1198531266 660352585 114213938 1033118918 1103029833 544489112 662913537#0 1103029873 870991314" color="blue"/>
    <route id="r_4" edges="583701022 584825959 660352567 1198531265 1198531266 660352585 114213938 1033118918 1103029833 544489112 662913537#0 1103029873 870991316 879172124 872215569 879177025 111987075 111987010 879172096 690613617 690613619 870991328 624604435#0 366952449#0 642896772 -797720294 -651079992 690977719 820090516 109971518#0 109971539#0 130048909#0 665515519#0 665515517 560538906#1 813394288 669869476" color="blue"/>
    <route id="r_5" edges="669869476.66 813394289#0 1103307016#0 555020953#0 564298119#1 200093474 23959414 306636237 306636445 306636445-AddedOffRampEdge 109971191 1073924568" color="blue"/>
    <route id="r_6" edges="669869476.66 813394289#0 1103307016#0 555020953#0 564298119#1 200093474 23959414 306636237 306636445 306636445-AddedOffRampEdge 653015388 272985473 555020929 107773896 555020925#0 555020925#1 734379942#0 734379942#1 23959380 724670137 22730660 724670138 22730634 22730634-AddedOffRampEdge 555020891 568975575#0 568975575#1 864803042 825762517 864803055 864803045-AddedOnRampEdge" color="blue"/>
    <route id="r_7" edges="575288143 568975575#1 568975566 555020886 575293226#0 575293226#1 563743939#0 563743939#1-AddedOnRampEdge 563743939#1 708734828-AddedOnRampEdge 708734828 699824385 4486320 856789357 1210746304 687100199 856789358 856820281 650299588 650299586 563743949 650299587 857127169 650299590 650299590-AddedOffRampEdge 456482268 456482267-AddedOnRampEdge 456482267 456482267-AddedOffRampEdge 667607234#0" color="blue"/>
    <route id="r_8" edges="583701022 584825959 660352567 1198531265 1198531266 660352585 114213938 1033118918 1103029833 544489112 662913537#0 1103029873 870991316 879172124 872215569 879177025 111987075 111987010 879172096 690613617 690613619 870991328 624604435#0 366952449#0 642896772 -797720294 -651079992 690977719 820090516 109971518#0 109971539#0 130048909#0 665515519#0 665515517 560538906#1 813394288 813394290#0 813394289#0 1103307016#0 555020953#0 564298119#1 200093474 23959414 306636237 306636445 306636445-AddedOffRampEdge 653015388 272985473 555020929 107773896 555020925#0 555020925#1 734379942#0 734379942#1 23959380 724670137 22730660 724670138 22730634 22730634-AddedOffRampEdge 555020891 568975575#0 568975575#1 568975566 555020886 575293226#0 575293226#1 563743939#0 563743939#1-AddedOnRampEdge 563743939#1 708734828-AddedOnRampEdge 708734828 699824385 4486320 856789357 1210746304 687100199 856789358 856820281 650299588 650299586 563743949 650299587 857127169 650299590 650299590-AddedOffRampEdge 649171195 621030749#0 621030728 245238968 678960768#0 369829204#0 355084527 632555219 22738847 245317925#0 423798481 644875508 840378999 840378999-AddedOffRampEdge 667228840 644875524 775216094 576201832 665068121 791530031 576201831 111735144 918504765 111735143 931457626 709834494 324152520#2 1124732197 230520303 844731941"/>
    <route id="r_9" edges="632555185 632555219 22738847 245317925#0 423798481 644875508 840378999 840378999-AddedOffRampEdge 667228840 644875524 78627391 644875503-AddedOnRampEdge" color="blue"/>
    <route id="round_trip" edges="583701022 584825959 660352567 1198531265 1198531266 660352585 114213938 1033118918 1103029833 544489112 662913537#0 1103029873 870991316 879172124 872215569 879177025 111987075 111987010 879172096 690613617 690613619 870991328 624604435#0 366952449#0 642896772 -797720294 -651079992 690977719 820090516 109971518#0 109971539#0 130048909#0 665515519#0 665515517 560538906#1 813394288 813394290#0 813394289#0 1103307016#0 555020953#0 564298119#1 200093474 23959414 306636237 306636445 306636445-AddedOffRampEdge 653015388 272985473 555020929 107773896 555020925#0 555020925#1 734379942#0 734379942#1 23959380 724670137 22730660 724670138 22730634 22730634-AddedOffRampEdge 555020891 568975575#0 568975575#1 568975566 555020886 575293226#0 575293226#1 563743939#0 563743939#1-AddedOnRampEdge 563743939#1 708734828-AddedOnRampEdge 708734828 699824385 4486320 856789357 1210746304 687100199 856789358 856820281 650299588 650299586 563743949 650299587 857127169 650299590 650299590-AddedOffRampEdge 649171195 621030749#0 621030728 245238968 678960768#0 369829204#0 355084527 632555219 22738847 245317925#0 423798481 644875508 840378999 840378999-AddedOffRampEdge 667228840 644875524 775216094 576201832 665068121 791530031 576201831 111735144 918504765 111735143 931457626 709834494 324152520#2 23952759 850329037 23952832 761980619 761980615 761980617 762672808 762688381 632727188 909967551 909967551-AddedOffRampEdge 576201844 156782313 644875495-AddedOnRampEdge 644875495 644875492#1 667228839-AddedOnRampEdge 667228839 840378998 644875507#0 644875507#1 644875520 1092898261 1276265244 1276265240 22738849#0 245317928-AddedOnRampEdge 245317928 711708395 1074926268 711708392 711708392-AddedOffRampEdge 245317915#1 688086638-AddedOnRampEdge 688086638 645165804#0 369829194 245317930 245317930-AddedOffRampEdge 245317933#0 649171196 28740343 857127171 676675609 676675609-AddedOffRampEdge 650299591 4486322 613962959 2670552 2670552-AddedOffRampEdge 575288141#1 540197124#0 540197124#1 540197124#2 568975568 492209951 1074261077 568975570-AddedOnRampEdge 568975570 563743937-AddedOnRampEdge 563743937 191681722 564221897 109733602 563748264 162328085 164277298 352801326 1054315845 1054315838#0 863419980#0 665515516#1 665515518#1 533386346 665787499 665787524 532222568 109981573 -183543979 -282194769 651079976 573710407 993441705 767517245 775185678 894843877#1 -690613619 -690613617 -918082989 -690613625 -111987075 -879177025 -642893603 -872215578 871213663 1103029872 1033118917 651079971 660352590 651079972 114213935#1 -563021933" color="magenta"/>
</routes>
