<?xml version="1.0" encoding="UTF-8"?>

<!-- generated on 2024-07-12 09:49:05 by Eclipse SUMO netedit Version 1.19.0
-->

<routes xmlns:xsi="http://www.w3.org/2001/XMLSchema-instance" xsi:noNamespaceSchemaLocation="http://sumo.dlr.de/xsd/routes_file.xsd">
    <!-- VTypes -->
    <vType id="valid-Bus" vClass="bus" color="blue"/>
    <vType id="valid-Car" vClass="passenger" color="yellow"/>
    <vType id="valid-Jeep" vClass="passenger" color="magenta"/>
    <vType id="valid-Motor" vClass="motorcycle" color="green" maxSpeed= "4.0"/>
    <!-- Routes -->
    <route id="SSI-Traffic" edges="-651079992" color="0,128,128"/>
    <route id="Valid-Blvd-Entrance" edges="109971518#0" color="0,128,128"/>
    <route id="Valid-Perps-Town" edges="690977719" color="0,128,128"/>
    <route id="Valid-SM-Traffic" edges="879172096 690613617 690613619" color="0,128,128"/>
    <route id="Valid-Traffic-Divimart" edges="130048909#0" color="0,128,128"/>
    <route id="Valid-Traffic-StDOM-Cavitex" edges="1103307016#0 555020953#0 564298119#1 200093474" color="0,128,128"/>
    <route id="valid-before-ssi" edges="-797720294" color="0,128,128"/>
    <route id="valid_avida" edges="1103029873 870991314" color="0,128,128"/>
    
    <!-- Create Flows -->
    <flow id="Avida-Flow" type="valid-Motor" begin = "530" end = "545" number = "10" route = "valid_avida"/>

    <flow id="SM-Flow" type="valid-Car" begin = "833" end = "3600" number = "1" route = "Valid-SM-Traffic"/>

    <flow id="Before-SSI-Flow" type="valid-Car" begin = "928" end = "3600" number = "1" route = "valid-before-ssi"/>

    <flow id="SSI-Flow" type="valid-Car" begin = "1028" end = "3600" number = "1" route = "SSI-Traffic"/>

    <flow id="Perps-Town-Flow" type="valid-Car" begin = "1056" end = "3600" number = "1" route = "Valid-Perps-Town"/>

    <flow id="Blvd-Entrance-Flow" type="valid-Car" begin = "1375" end = "3600" number = "1" route = "Valid-Blvd-Entrance"/>
    <flow id="Blvd-Entrance-Flow-Motor" type="valid-Motor" begin = "0" end = "3600" number = "1" route = "Valid-Blvd-Entrance"/>

    <flow id="Traffic-Divimart-Flow" type="valid-Car" begin = "1675" end = "3600" number = "1" route = "Valid-Traffic-Divimart"/>

    <flow id="Traffic-StDOM-Cavitex-Flow" type="valid-Car" begin = "1988" end = "3600" number = "1" route = "Valid-Traffic-StDOM-Cavitex"/>

    <!-- Add Stopped Vehicles sa Road -->




</routes>
