<?xml version="1.0" encoding="UTF-8"?>

<!-- generated on 2024-03-25 15:56:12.709166 by osmWebWizard.py v1_19_0+0000-baa66a0f364
<configuration>
    <net-file value="C:\Users\Gabe Piano\Sumo\2024-03-25-15-55-45\osm.net.xml.gz"/>
    <output-trip-file value="C:\Users\Gabe Piano\Sumo\2024-03-25-15-55-45\osm.truck.trips.xml"/>
    <route-file value="C:\Users\Gabe Piano\Sumo\2024-03-25-15-55-45\osm.truck.rou.xml"/>
    <prefix value="truck"/>
    <trip-attributes value="departLane=&quot;best&quot;"/>
    <fringe-start-attributes value="departSpeed=&quot;max&quot;"/>
    <vehicle-class value="truck"/>
    <fringe-factor value="5"/>
    <vclass value="truck"/>
    <via-edge-types value="highway.motorway,highway.motorway_link,highway.trunk_link,highway.primary_link,highway.secondary_link,highway.tertiary_link"/>
    <min-distance value="600.0"/>
    <min-distance.fringe value="10.0"/>
    <remove-loops value="True"/>
    <validate value="True"/>
    <insertion-density value="8.0"/>
</configuration>
-->

<!-- generated on 2024-03-25 15:56:12 by Eclipse SUMO duarouter Version 1.19.0
<configuration xmlns:xsi="http://www.w3.org/2001/XMLSchema-instance" xsi:noNamespaceSchemaLocation="http://sumo.dlr.de/xsd/duarouterConfiguration.xsd">

    <input>
        <net-file value="C:\Users\Gabe Piano\Sumo\2024-03-25-15-55-45\osm.net.xml.gz"/>
        <route-files value="C:\Users\Gabe Piano\Sumo\2024-03-25-15-55-45\osm.truck.trips.xml"/>
    </input>

    <output>
        <output-file value="C:\Users\Gabe Piano\Sumo\2024-03-25-15-55-45\osm.truck.trips.xml.tmp"/>
        <alternatives-output value="NUL"/>
        <write-trips value="true"/>
    </output>

    <processing>
        <remove-loops value="true"/>
    </processing>

    <time>
        <begin value="0.0"/>
        <end value="3600.0"/>
    </time>

    <report>
        <no-warnings value="true"/>
        <ignore-errors value="true"/>
        <no-step-log value="true"/>
    </report>

</configuration>
-->

<routes xmlns:xsi="http://www.w3.org/2001/XMLSchema-instance" xsi:noNamespaceSchemaLocation="http://sumo.dlr.de/xsd/routes_file.xsd">
    <vType id="truck_truck" vClass="truck"/>
    <trip id="truck1" type="truck_truck" depart="5.60" departLane="best" from="1103029862#1" to="109971518#1"/>
    <trip id="truck3" type="truck_truck" depart="16.80" departLane="best" from="870991315#1" to="690613619"/>
    <trip id="truck5" type="truck_truck" depart="28.00" departLane="best" departSpeed="max" from="109984882#0" to="183690512#3"/>
    <trip id="truck6" type="truck_truck" depart="33.60" departLane="best" from="-282194769" to="1072529521"/>
    <trip id="truck7" type="truck_truck" depart="39.21" departLane="best" from="651079954#1" to="561748193"/>
    <trip id="truck8" type="truck_truck" depart="44.81" departLane="best" departSpeed="max" from="109984882#0" to="584825959"/>
    <trip id="truck9" type="truck_truck" depart="50.41" departLane="best" from="-690613625#1" to="-111987075"/>
    <trip id="truck10" type="truck_truck" depart="56.01" departLane="best" from="690613620#1" to="651080002"/>
    <trip id="truck11" type="truck_truck" depart="61.61" departLane="best" from="879177025#0" to="690613620#1"/>
    <trip id="truck12" type="truck_truck" depart="67.21" departLane="best" from="-690613625#1" to="660352582#1"/>
    <trip id="truck13" type="truck_truck" depart="72.81" departLane="best" from="574917575#1" to="884613952"/>
    <trip id="truck15" type="truck_truck" depart="84.01" departLane="best" from="758887472" to="628567782#0"/>
    <trip id="truck17" type="truck_truck" depart="95.21" departLane="best" from="660352572#1" to="-563021933"/>
    <trip id="truck18" type="truck_truck" depart="100.81" departLane="best" departSpeed="max" from="109984882#0" to="1103029862#1"/>
    <trip id="truck19" type="truck_truck" depart="106.42" departLane="best" from="544489067#1" to="109971518#1"/>
    <trip id="truck20" type="truck_truck" depart="112.02" departLane="best" from="-879177025#1" to="1103029856#1"/>
    <trip id="truck21" type="truck_truck" depart="117.62" departLane="best" from="1103029856#1" to="872215569"/>
    <trip id="truck22" type="truck_truck" depart="123.22" departLane="best" from="651079954#1" to="624604436"/>
    <trip id="truck25" type="truck_truck" depart="140.02" departLane="best" from="894843877#2" to="628567782#1"/>
    <trip id="truck27" type="truck_truck" depart="151.22" departLane="best" departSpeed="max" from="109984882#0" to="-544489067#0"/>
    <trip id="truck28" type="truck_truck" depart="156.82" departLane="best" from="-111987075" to="1103029835#1"/>
    <trip id="truck29" type="truck_truck" depart="162.42" departLane="best" departSpeed="max" from="109984882#0" to="-918082989"/>
    <trip id="truck30" type="truck_truck" depart="168.02" departLane="best" departSpeed="max" from="870991315#0" to="1103029873"/>
    <trip id="truck31" type="truck_truck" depart="173.63" departLane="best" from="651079971" to="1157435279#1"/>
    <trip id="truck32" type="truck_truck" depart="179.23" departLane="best" from="1103029856#1" to="109971518#1"/>
    <trip id="truck33" type="truck_truck" depart="184.83" departLane="best" departSpeed="max" from="583701022" to="1103029833#1"/>
    <trip id="truck34" type="truck_truck" depart="190.43" departLane="best" from="584825959" to="870991319#0"/>
    <trip id="truck35" type="truck_truck" depart="196.03" departLane="best" departSpeed="max" from="1157435280#0" to="109971518#1"/>
    <trip id="truck36" type="truck_truck" depart="201.63" departLane="best" from="-879177025#0" to="-563021933"/>
    <trip id="truck37" type="truck_truck" depart="207.23" departLane="best" from="1033118917#0" to="628567782#1"/>
    <trip id="truck38" type="truck_truck" depart="212.83" departLane="best" from="690613617" to="180087573"/>
    <trip id="truck39" type="truck_truck" depart="218.43" departLane="best" from="-690613625#0" to="1157435279#1"/>
    <trip id="truck40" type="truck_truck" depart="224.03" departLane="best" from="993441705" to="544489068#1"/>
    <trip id="truck41" type="truck_truck" depart="229.63" departLane="best" from="-879177025#1" to="870991314#1"/>
    <trip id="truck42" type="truck_truck" depart="235.23" departLane="best" from="-183543979#0" to="660352572#1"/>
    <trip id="truck43" type="truck_truck" depart="240.84" departLane="best" from="1103029856#1" to="628567782#1"/>
    <trip id="truck44" type="truck_truck" depart="246.44" departLane="best" from="1033118917#0" to="180087573"/>
    <trip id="truck45" type="truck_truck" depart="252.04" departLane="best" departSpeed="max" from="183685560#0" to="-690613620#0"/>
    <trip id="truck46" type="truck_truck" depart="257.64" departLane="best" departSpeed="max" from="870991315#0" to="1103029833#1"/>
    <trip id="truck48" type="truck_truck" depart="268.84" departLane="best" from="870991319#1" to="870991314#1"/>
    <trip id="truck49" type="truck_truck" depart="274.44" departLane="best" from="1103029873" to="628567782#1"/>
    <trip id="truck51" type="truck_truck" depart="285.64" departLane="best" departSpeed="max" from="665214722" to="561748189"/>
    <trip id="truck53" type="truck_truck" depart="296.84" departLane="best" from="-183543979#1" to="871213663#1"/>
    <trip id="truck54" type="truck_truck" depart="302.44" departLane="best" departSpeed="max" from="870991315#0" to="775185677"/>
    <trip id="truck55" type="truck_truck" depart="308.04" departLane="best" from="-879177024#0" to="-563021933"/>
    <trip id="truck56" type="truck_truck" depart="313.65" departLane="best" from="111987010#1" to="183690512#3"/>
    <trip id="truck57" type="truck_truck" depart="319.25" departLane="best" departSpeed="max" from="665214722" to="-879177025#0"/>
    <trip id="truck58" type="truck_truck" depart="324.85" departLane="best" from="1103029856#1" to="870991314#1"/>
    <trip id="truck59" type="truck_truck" depart="330.45" departLane="best" from="180087572" to="1090755562#1"/>
    <trip id="truck60" type="truck_truck" depart="336.05" departLane="best" from="574917575#1" to="660352582#1"/>
    <trip id="truck61" type="truck_truck" depart="341.65" departLane="best" from="1090755562#1" to="1103029872"/>
    <trip id="truck62" type="truck_truck" depart="347.25" departLane="best" from="993441705" to="628567782#1"/>
    <trip id="truck63" type="truck_truck" depart="352.85" departLane="best" departSpeed="max" from="183685560#0" to="366952449#1"/>
    <trip id="truck64" type="truck_truck" depart="358.45" departLane="best" from="1033118918" to="109971518#1"/>
    <trip id="truck65" type="truck_truck" depart="364.05" departLane="best" from="114213957#1" to="584825959"/>
    <trip id="truck66" type="truck_truck" depart="369.65" departLane="best" from="-690613625#1" to="628567782#1"/>
    <trip id="truck67" type="truck_truck" depart="375.25" departLane="best" departSpeed="max" from="109984882#0" to="870991319#1"/>
    <trip id="truck68" type="truck_truck" depart="380.86" departLane="best" from="1103029814#1" to="651079972"/>
    <trip id="truck69" type="truck_truck" depart="386.46" departLane="best" departSpeed="max" from="109984882#0" to="-879177025#0"/>
    <trip id="truck70" type="truck_truck" depart="392.06" departLane="best" from="879177025#1" to="180087573"/>
    <trip id="truck71" type="truck_truck" depart="397.66" departLane="best" from="180087572" to="183689805#1"/>
    <trip id="truck72" type="truck_truck" depart="403.26" departLane="best" from="894843877#1" to="-690613625#0"/>
    <trip id="truck74" type="truck_truck" depart="414.46" departLane="best" from="1072529521" to="180087573"/>
    <trip id="truck75" type="truck_truck" depart="420.06" departLane="best" from="180087572" to="1103029856#1"/>
    <trip id="truck76" type="truck_truck" depart="425.66" departLane="best" from="1103029833#1" to="871213663#0"/>
    <trip id="truck77" type="truck_truck" depart="431.26" departLane="best" departSpeed="max" from="183685560#0" to="870991314#1"/>
    <trip id="truck78" type="truck_truck" depart="436.86" departLane="best" from="580815653#2" to="-563021933"/>
    <trip id="truck79" type="truck_truck" depart="442.46" departLane="best" from="-879177025#1" to="871213663#0"/>
    <trip id="truck81" type="truck_truck" depart="453.67" departLane="best" departSpeed="max" from="1157435280#0" to="-563021933"/>
    <trip id="truck82" type="truck_truck" depart="459.27" departLane="best" departSpeed="max" from="1157435280#0" to="894843877#1"/>
    <trip id="truck83" type="truck_truck" depart="464.87" departLane="best" from="1103029856#1" to="690613619"/>
    <trip id="truck84" type="truck_truck" depart="470.47" departLane="best" departSpeed="max" from="183685560#0" to="180087573"/>
    <trip id="truck86" type="truck_truck" depart="481.67" departLane="best" departSpeed="max" from="583701022" to="660352572#1"/>
    <trip id="truck87" type="truck_truck" depart="487.27" departLane="best" from="1054125801#1" to="1103029863#1"/>
    <trip id="truck89" type="truck_truck" depart="498.47" departLane="best" from="574917579#1" to="662913524"/>
    <trip id="truck91" type="truck_truck" depart="509.67" departLane="best" from="544489112" to="870991314#0"/>
    <trip id="truck92" type="truck_truck" depart="515.27" departLane="best" from="1054125801#1" to="-879177025#0"/>
    <trip id="truck95" type="truck_truck" depart="532.08" departLane="best" from="1103029814#1" to="544489067#1"/>
    <trip id="truck96" type="truck_truck" depart="537.68" departLane="best" departSpeed="max" from="870991315#0" to="109971518#1"/>
    <trip id="truck97" type="truck_truck" depart="543.28" departLane="best" from="624604434#1" to="628567782#0"/>
    <trip id="truck98" type="truck_truck" depart="548.88" departLane="best" from="573710409#0" to="-642893603"/>
    <trip id="truck99" type="truck_truck" depart="554.48" departLane="best" from="1103029833#0" to="1157435279#1"/>
    <trip id="truck100" type="truck_truck" depart="560.08" departLane="best" from="651079990" to="1103029863#1"/>
    <trip id="truck101" type="truck_truck" depart="565.68" departLane="best" from="-111987075" to="662913524"/>
    <trip id="truck103" type="truck_truck" depart="576.88" departLane="best" from="-690613625#1" to="1090755562#1"/>
    <trip id="truck104" type="truck_truck" depart="582.48" departLane="best" from="1103029856#1" to="871213663#1"/>
    <trip id="truck107" type="truck_truck" depart="599.29" departLane="best" from="651079971" to="111987075"/>
    <trip id="truck109" type="truck_truck" depart="610.49" departLane="best" from="651079972" to="872215569"/>
    <trip id="truck110" type="truck_truck" depart="616.09" departLane="best" from="1033158923#0" to="-872215578"/>
    <trip id="truck112" type="truck_truck" depart="627.29" departLane="best" from="1103029858#1" to="624604435#0"/>
    <trip id="truck113" type="truck_truck" depart="632.89" departLane="best" from="660352582#1" to="1072529521"/>
    <trip id="truck114" type="truck_truck" depart="638.49" departLane="best" departSpeed="max" from="651079954#0" to="1103029833#1"/>
    <trip id="truck116" type="truck_truck" depart="649.69" departLane="best" from="180087572" to="1103029835#2"/>
    <trip id="truck117" type="truck_truck" depart="655.30" departLane="best" from="111987010#0" to="683268248#1"/>
    <trip id="truck118" type="truck_truck" depart="660.90" departLane="best" departSpeed="max" from="651079954#0" to="1103029833#1"/>
    <trip id="truck122" type="truck_truck" depart="683.30" departLane="best" from="1054125801#0" to="-879177025#0"/>
    <trip id="truck123" type="truck_truck" depart="688.90" departLane="best" from="111987010#1" to="870991319#0"/>
    <trip id="truck124" type="truck_truck" depart="694.50" departLane="best" from="-690613619" to="870991314#1"/>
    <trip id="truck125" type="truck_truck" depart="700.10" departLane="best" from="870991316" to="1090755561#1"/>
    <trip id="truck126" type="truck_truck" depart="705.70" departLane="best" from="1103029833#1" to="690613625#1"/>
    <trip id="truck128" type="truck_truck" depart="716.90" departLane="best" from="1054125801#1" to="871213663#1"/>
    <trip id="truck129" type="truck_truck" depart="722.51" departLane="best" departSpeed="max" from="870991315#0" to="892972017#1"/>
    <trip id="truck130" type="truck_truck" depart="728.11" departLane="best" from="-690613625#1" to="870991314#1"/>
    <trip id="truck131" type="truck_truck" depart="733.71" departLane="best" from="-282194769" to="660352585"/>
    <trip id="truck132" type="truck_truck" depart="739.31" departLane="best" from="114213938" to="871213663#1"/>
    <trip id="truck133" type="truck_truck" depart="744.91" departLane="best" from="-690613625#0" to="870991314#1"/>
    <trip id="truck134" type="truck_truck" depart="750.51" departLane="best" from="-690613625#1" to="1103029835#1"/>
    <trip id="truck136" type="truck_truck" depart="761.71" departLane="best" departSpeed="max" from="109984882#0" to="758887472"/>
    <trip id="truck137" type="truck_truck" depart="767.31" departLane="best" from="183685561" to="1103029863#2"/>
    <trip id="truck138" type="truck_truck" depart="772.91" departLane="best" from="690613617" to="109971518#1"/>
    <trip id="truck139" type="truck_truck" depart="778.51" departLane="best" from="-282194769" to="1054125801#1"/>
    <trip id="truck140" type="truck_truck" depart="784.11" departLane="best" from="114213935#2" to="870991314#1"/>
    <trip id="truck141" type="truck_truck" depart="789.71" departLane="best" from="-879177025#1" to="1103029856#1"/>
    <trip id="truck142" type="truck_truck" depart="795.32" departLane="best" from="892972017#1" to="561748189"/>
    <trip id="truck144" type="truck_truck" depart="806.52" departLane="best" from="-879177025#0" to="1103029835#1"/>
    <trip id="truck145" type="truck_truck" depart="812.12" departLane="best" from="1033118917#0" to="180087573"/>
    <trip id="truck146" type="truck_truck" depart="817.72" departLane="best" from="662913519#1" to="1103029873"/>
    <trip id="truck147" type="truck_truck" depart="823.32" departLane="best" departSpeed="max" from="1157435280#0" to="574917579#1"/>
    <trip id="truck148" type="truck_truck" depart="828.92" departLane="best" from="1103029835#1" to="651080033#1"/>
    <trip id="truck149" type="truck_truck" depart="834.52" departLane="best" from="-111987010#0" to="871213663#0"/>
    <trip id="truck150" type="truck_truck" depart="840.12" departLane="best" from="574917575#1" to="660352572#1"/>
    <trip id="truck151" type="truck_truck" depart="845.72" departLane="best" from="662913537#0" to="651079972"/>
    <trip id="truck152" type="truck_truck" depart="851.32" departLane="best" departSpeed="max" from="114216292" to="872215569"/>
    <trip id="truck153" type="truck_truck" depart="856.92" departLane="best" from="651079972" to="111987010#1"/>
    <trip id="truck154" type="truck_truck" depart="862.53" departLane="best" from="111987075" to="820090516"/>
    <trip id="truck155" type="truck_truck" depart="868.13" departLane="best" from="660352582#1" to="1103029863#1"/>
    <trip id="truck156" type="truck_truck" depart="873.73" departLane="best" from="-879177024#0" to="1198531265"/>
    <trip id="truck157" type="truck_truck" depart="879.33" departLane="best" departSpeed="max" from="1157435280#0" to="1103029863#1"/>
    <trip id="truck159" type="truck_truck" depart="890.53" departLane="best" from="870991316" to="628567782#0"/>
    <trip id="truck160" type="truck_truck" depart="896.13" departLane="best" from="1103029873" to="561748193"/>
    <trip id="truck161" type="truck_truck" depart="901.73" departLane="best" from="-111987010#0" to="1103029858#1"/>
    <trip id="truck163" type="truck_truck" depart="912.93" departLane="best" from="651079971" to="183689805#1"/>
    <trip id="truck164" type="truck_truck" depart="918.53" departLane="best" departSpeed="max" from="183685560#0" to="1090755562#1"/>
    <trip id="truck165" type="truck_truck" depart="924.13" departLane="best" from="544489067#1" to="366952449#1"/>
    <trip id="truck166" type="truck_truck" depart="929.74" departLane="best" departSpeed="max" from="651079954#0" to="111987075"/>
    <trip id="truck167" type="truck_truck" depart="935.34" departLane="best" from="758880904#1" to="662913524"/>
    <trip id="truck168" type="truck_truck" depart="940.94" departLane="best" from="651079990" to="109971518#1"/>
    <trip id="truck170" type="truck_truck" depart="952.14" departLane="best" from="1103029833#1" to="183690512#2"/>
    <trip id="truck171" type="truck_truck" depart="957.74" departLane="best" from="775185678" to="-651079992"/>
    <trip id="truck172" type="truck_truck" depart="963.34" departLane="best" from="1090755561#1" to="651080002"/>
    <trip id="truck173" type="truck_truck" depart="968.94" departLane="best" from="544489068#1" to="109971518#1"/>
    <trip id="truck174" type="truck_truck" depart="974.54" departLane="best" from="651079971" to="111987010#0"/>
    <trip id="truck175" type="truck_truck" depart="980.14" departLane="best" departSpeed="max" from="665214722" to="683268239"/>
    <trip id="truck176" type="truck_truck" depart="985.74" departLane="best" from="879172096" to="180087573"/>
    <trip id="truck178" type="truck_truck" depart="996.94" departLane="best" from="573710407" to="-563021933"/>
    <trip id="truck179" type="truck_truck" depart="1002.55" departLane="best" from="1103029833#1" to="820090516"/>
    <trip id="truck180" type="truck_truck" depart="1008.15" departLane="best" departSpeed="max" from="183685560#0" to="690977719"/>
    <trip id="truck181" type="truck_truck" depart="1013.75" departLane="best" from="651079976" to="894843877#1"/>
    <trip id="truck182" type="truck_truck" depart="1019.35" departLane="best" from="624604434#1" to="-544489067#0"/>
    <trip id="truck183" type="truck_truck" depart="1024.95" departLane="best" departSpeed="max" from="870991315#0" to="624604436"/>
    <trip id="truck184" type="truck_truck" depart="1030.55" departLane="best" from="660352582#1" to="183690512#3"/>
    <trip id="truck185" type="truck_truck" depart="1036.15" departLane="best" from="870991315#1" to="662913519#1"/>
    <trip id="truck187" type="truck_truck" depart="1047.35" departLane="best" from="1103029833#1" to="628567782#1"/>
    <trip id="truck188" type="truck_truck" depart="1052.95" departLane="best" departSpeed="max" from="665214722" to="-872215578"/>
    <trip id="truck189" type="truck_truck" depart="1058.55" departLane="best" departSpeed="max" from="651079954#0" to="1103029835#2"/>
    <trip id="truck191" type="truck_truck" depart="1069.76" departLane="best" from="1103029858#1" to="111987010#0"/>
    <trip id="truck192" type="truck_truck" depart="1075.36" departLane="best" from="574917579#1" to="879177025#1"/>
    <trip id="truck193" type="truck_truck" depart="1080.96" departLane="best" departSpeed="max" from="109984882#0" to="651080025"/>
    <trip id="truck194" type="truck_truck" depart="1086.56" departLane="best" from="660352572#1" to="-563021933"/>
    <trip id="truck195" type="truck_truck" depart="1092.16" departLane="best" from="1157435280#1" to="561748193"/>
    <trip id="truck196" type="truck_truck" depart="1097.76" departLane="best" from="573710409#0" to="1090755561#1"/>
    <trip id="truck197" type="truck_truck" depart="1103.36" departLane="best" from="584825959" to="651080002"/>
    <trip id="truck199" type="truck_truck" depart="1114.56" departLane="best" departSpeed="max" from="1157435280#0" to="111987010#0"/>
    <trip id="truck200" type="truck_truck" depart="1120.16" departLane="best" departSpeed="max" from="114216292" to="662913537#0"/>
    <trip id="truck202" type="truck_truck" depart="1131.36" departLane="best" from="573710409#0" to="662913524"/>
    <trip id="truck205" type="truck_truck" depart="1148.17" departLane="best" from="1157435280#1" to="1033158919#1"/>
    <trip id="truck206" type="truck_truck" depart="1153.77" departLane="best" from="183689805#1" to="-879177025#0"/>
    <trip id="truck208" type="truck_truck" depart="1164.97" departLane="best" departSpeed="max" from="1157435280#0" to="574917570#1"/>
    <trip id="truck209" type="truck_truck" depart="1170.57" departLane="best" from="-282194769" to="628567782#1"/>
    <trip id="truck210" type="truck_truck" depart="1176.17" departLane="best" from="-690613617" to="1157435279#1"/>
    <trip id="truck211" type="truck_truck" depart="1181.77" departLane="best" departSpeed="max" from="109984882#0" to="-879177024#0"/>
    <trip id="truck212" type="truck_truck" depart="1187.37" departLane="best" departSpeed="max" from="665214722" to="1157435279#1"/>
    <trip id="truck213" type="truck_truck" depart="1192.97" departLane="best" departSpeed="max" from="665214722" to="775185677"/>
    <trip id="truck214" type="truck_truck" depart="1198.57" departLane="best" from="1103029835#1" to="690613617"/>
    <trip id="truck215" type="truck_truck" depart="1204.18" departLane="best" from="-183543979#1" to="561748189"/>
    <trip id="truck216" type="truck_truck" depart="1209.78" departLane="best" from="993441705" to="114213938"/>
    <trip id="truck217" type="truck_truck" depart="1215.38" departLane="best" from="651079954#1" to="690613617"/>
    <trip id="truck218" type="truck_truck" depart="1220.98" departLane="best" from="651079954#1" to="662913537#0"/>
    <trip id="truck219" type="truck_truck" depart="1226.58" departLane="best" from="879172124" to="1072529521"/>
    <trip id="truck220" type="truck_truck" depart="1232.18" departLane="best" from="-183543979#1" to="1033118917#1"/>
    <trip id="truck221" type="truck_truck" depart="1237.78" departLane="best" from="1033158919#1" to="651079972"/>
    <trip id="truck222" type="truck_truck" depart="1243.38" departLane="best" departSpeed="max" from="583701022" to="109971518#1"/>
    <trip id="truck223" type="truck_truck" depart="1248.98" departLane="best" from="660352567" to="683268239"/>
    <trip id="truck224" type="truck_truck" depart="1254.58" departLane="best" from="665214718#1" to="-872215578"/>
    <trip id="truck225" type="truck_truck" depart="1260.18" departLane="best" from="758880904#1" to="879177025#1"/>
    <trip id="truck228" type="truck_truck" depart="1276.99" departLane="best" from="-690613620#0" to="1157435279#1"/>
    <trip id="truck229" type="truck_truck" depart="1282.59" departLane="best" from="660352572#2" to="-651079992"/>
    <trip id="truck230" type="truck_truck" depart="1288.19" departLane="best" from="651080031" to="628567782#1"/>
    <trip id="truck231" type="truck_truck" depart="1293.79" departLane="best" from="879177025#1" to="683268248#1"/>
    <trip id="truck232" type="truck_truck" depart="1299.39" departLane="best" from="1033118918" to="894843877#1"/>
    <trip id="truck235" type="truck_truck" depart="1316.19" departLane="best" from="561748189" to="114213935#1"/>
    <trip id="truck236" type="truck_truck" depart="1321.79" departLane="best" from="-918082989" to="-879177025#0"/>
    <trip id="truck238" type="truck_truck" depart="1332.99" departLane="best" from="660352572#1" to="180087573"/>
    <trip id="truck239" type="truck_truck" depart="1338.59" departLane="best" from="662913524" to="879177025#1"/>
    <trip id="truck240" type="truck_truck" depart="1344.20" departLane="best" from="574917575#1" to="183690512#3"/>
    <trip id="truck241" type="truck_truck" depart="1349.80" departLane="best" departSpeed="max" from="183685560#0" to="660352582#1"/>
    <trip id="truck242" type="truck_truck" depart="1355.40" departLane="best" from="1103029858#1" to="870991314#0"/>
    <trip id="truck243" type="truck_truck" depart="1361.00" departLane="best" from="759516987#2" to="-690613619"/>
    <trip id="truck244" type="truck_truck" depart="1366.60" departLane="best" departSpeed="max" from="870991315#0" to="109971518#1"/>
    <trip id="truck245" type="truck_truck" depart="1372.20" departLane="best" from="183685561" to="624604436"/>
    <trip id="truck247" type="truck_truck" depart="1383.40" departLane="best" departSpeed="max" from="109984882#0" to="-690613625#1"/>
    <trip id="truck248" type="truck_truck" depart="1389.00" departLane="best" from="114213957#1" to="870991314#1"/>
    <trip id="truck249" type="truck_truck" depart="1394.60" departLane="best" from="660352567" to="1103029835#2"/>
    <trip id="truck250" type="truck_truck" depart="1400.20" departLane="best" from="-111987075" to="-544489067#0"/>
    <trip id="truck251" type="truck_truck" depart="1405.80" departLane="best" from="-879177024#0" to="660352572#1"/>
    <trip id="truck253" type="truck_truck" depart="1417.01" departLane="best" from="651080031" to="628567782#1"/>
    <trip id="truck254" type="truck_truck" depart="1422.61" departLane="best" from="544489067#1" to="690613620#1"/>
    <trip id="truck255" type="truck_truck" depart="1428.21" departLane="best" from="879177025#0" to="109971518#1"/>
    <trip id="truck256" type="truck_truck" depart="1433.81" departLane="best" from="651080031" to="1103029863#2"/>
    <trip id="truck257" type="truck_truck" depart="1439.41" departLane="best" from="584825959" to="183690512#2"/>
    <trip id="truck258" type="truck_truck" depart="1445.01" departLane="best" from="574917570#1" to="180087573"/>
    <trip id="truck259" type="truck_truck" depart="1450.61" departLane="best" from="665214718#1" to="-879177024#0"/>
    <trip id="truck260" type="truck_truck" depart="1456.21" departLane="best" from="660352567" to="1103029835#1"/>
    <trip id="truck261" type="truck_truck" depart="1461.81" departLane="best" from="1103029835#1" to="111987010#1"/>
    <trip id="truck263" type="truck_truck" depart="1473.01" departLane="best" from="574917575#1" to="665214718#1"/>
    <trip id="truck266" type="truck_truck" depart="1489.82" departLane="best" from="884613952" to="544489068#1"/>
    <trip id="truck267" type="truck_truck" depart="1495.42" departLane="best" from="1103029863#1" to="690613620#1"/>
    <trip id="truck268" type="truck_truck" depart="1501.02" departLane="best" from="1090755561#1" to="109971518#1"/>
    <trip id="truck270" type="truck_truck" depart="1512.22" departLane="best" from="574917575#1" to="1103029835#2"/>
    <trip id="truck271" type="truck_truck" depart="1517.82" departLane="best" from="651080033#1" to="111987010#1"/>
    <trip id="truck272" type="truck_truck" depart="1523.42" departLane="best" departSpeed="max" from="870991315#0" to="183690512#3"/>
    <trip id="truck273" type="truck_truck" depart="1529.02" departLane="best" departSpeed="max" from="870991315#0" to="574917579#1"/>
    <trip id="truck274" type="truck_truck" depart="1534.62" departLane="best" from="183689805#1" to="180087573"/>
    <trip id="truck276" type="truck_truck" depart="1545.82" departLane="best" from="872215569" to="183690512#3"/>
    <trip id="truck279" type="truck_truck" depart="1562.63" departLane="best" from="-690613619" to="1033118917#0"/>
    <trip id="truck280" type="truck_truck" depart="1568.23" departLane="best" departSpeed="max" from="583701022" to="1103029863#2"/>
    <trip id="truck281" type="truck_truck" depart="1573.83" departLane="best" from="894843877#2" to="-872215578"/>
    <trip id="truck282" type="truck_truck" depart="1579.43" departLane="best" departSpeed="max" from="665214722" to="651080002"/>
    <trip id="truck283" type="truck_truck" depart="1585.03" departLane="best" from="690613617" to="109971518#1"/>
    <trip id="truck284" type="truck_truck" depart="1590.63" departLane="best" from="573710407" to="180087573"/>
    <trip id="truck285" type="truck_truck" depart="1596.23" departLane="best" departSpeed="max" from="183685560#0" to="870991314#1"/>
    <trip id="truck286" type="truck_truck" depart="1601.83" departLane="best" from="894843877#2" to="1103029863#2"/>
    <trip id="truck287" type="truck_truck" depart="1607.43" departLane="best" departSpeed="max" from="651079954#0" to="624604436"/>
    <trip id="truck288" type="truck_truck" depart="1613.03" departLane="best" from="662913537#0" to="879172124"/>
    <trip id="truck289" type="truck_truck" depart="1618.64" departLane="best" departSpeed="max" from="109984882#0" to="1090755562#1"/>