<?xml version="1.0" encoding="UTF-8"?>

<!-- generated on 2024-03-25 15:56:11.842280 by osmWebWizard.py v1_19_0+0000-baa66a0f364
<configuration>
    <net-file value="C:\Users\Gabe Piano\Sumo\2024-03-25-15-55-45\osm.net.xml.gz"/>
    <additional-files value="C:\Users\Gabe Piano\Sumo\2024-03-25-15-55-45\osm_stops.add.xml,C:\Users\Gabe Piano\Sumo\2024-03-25-15-55-45\osm_pt.rou.xml"/>
    <output-trip-file value="C:\Users\Gabe Piano\Sumo\2024-03-25-15-55-45\osm.pedestrian.trips.xml"/>
    <route-file value="C:\Users\Gabe Piano\Sumo\2024-03-25-15-55-45\osm.pedestrian.rou.xml"/>
    <persontrips value="True"/>
    <persontrip.walk-opposite-factor value="0.8"/>
    <prefix value="ped"/>
    <trip-attributes value="modes=&quot;public&quot;"/>
    <vehicle-class value="pedestrian"/>
    <fringe-factor value="1"/>
    <insertion-density value="10.0"/>
</configuration>
-->

<!-- generated on 2024-03-25 15:56:11 by Eclipse SUMO duarouter Version 1.19.0
<configuration xmlns:xsi="http://www.w3.org/2001/XMLSchema-instance" xsi:noNamespaceSchemaLocation="http://sumo.dlr.de/xsd/duarouterConfiguration.xsd">

    <input>
        <net-file value="C:\Users\Gabe Piano\Sumo\2024-03-25-15-55-45\osm.net.xml.gz"/>
        <additional-files value="C:\Users\Gabe Piano\Sumo\2024-03-25-15-55-45\osm_stops.add.xml,C:\Users\Gabe Piano\Sumo\2024-03-25-15-55-45\osm_pt.rou.xml"/>
        <route-files value="C:\Users\Gabe Piano\Sumo\2024-03-25-15-55-45\osm.pedestrian.trips.xml"/>
    </input>

    <output>
        <output-file value="C:\Users\Gabe Piano\Sumo\2024-03-25-15-55-45\osm.pedestrian.rou.xml"/>
        <alternatives-output value="NUL"/>
    </output>

    <processing>
        <persontrip.walk-opposite-factor value="0.8"/>
    </processing>

    <time>
        <begin value="0.0"/>
        <end value="3600.0"/>
    </time>

    <report>
        <no-warnings value="true"/>
        <ignore-errors value="true"/>
        <no-step-log value="true"/>
    </report>

</configuration>
-->

<routes xmlns:xsi="http://www.w3.org/2001/XMLSchema-instance" xsi:noNamespaceSchemaLocation="http://sumo.dlr.de/xsd/routes_file.xsd">
    <vType id="ped_pedestrian" vClass="pedestrian"/>
    <person id="ped23" type="ped_pedestrian" depart="118.09">
        <walk edges="-690613625#0 -690613625#1 -918082989 -690613617 -690613619 894843877#2 894843877#1 870991327#0 1072631666#0"/>
    </person>
    <person id="ped36" type="ped_pedestrian" depart="184.84">
        <walk edges="870991320#0 -690613625#0 -690613620#0 -879177024#0 -111987010#0 -111987075 -879177025#1 -879177025#0 -642893603 -872215578 -544489067#0 871213663#0 871213663#1 544489068#1 574917579#1 1103029872 758880904#1" busStop="5263361646"/> <!-- SaveMore Salawag -->
        <ride busStop="669558953" lines="417:1" intended="pt_bus_417:1.4" depart="3345.00"/> <!-- Sakada -->
        <walk edges="1103029876 1103029877 1103029878#0 1033118917#0 1103029835#2 1103029835#1 1073794504#0 1073794506"/>
    </person>
    <person id="ped43" type="ped_pedestrian" depart="220.78">
        <walk edges="993441705 651079990 538154664#1 366952449#1"/>
    </person>
    <person id="ped48" type="ped_pedestrian" depart="246.46">
        <walk edges="993441705 651079990 538154664#1 423423400#2"/>
    </person>
    <person id="ped49" type="ped_pedestrian" depart="251.59">
        <walk edges="91875567#2 91875567#1 91875567#0 864646205"/>
    </person>
    <person id="ped54" type="ped_pedestrian" depart="277.26">
        <walk edges="1203003335#2" busStop="1294039033"/> <!-- Viva Homes -->
        <ride busStop="28997041" lines="Minibus:_SaveMore_San_Marino_→_Central_Mall_Dasmariñas:0" intended="pt_bus_Minibus:_SaveMore_San_Marino_→_Central_Mall_Dasmariñas:0.0" depart="344.00"/>
        <walk edges="1103029881 1103029876 1103029877 1103029878#0 1033118917#0 1103029835#2 1103029835#1 1103029863#2 1103029863#1 1103029858#1 1103029856#1 758880904#1 1103029872 574917579#1 544489068#1 871213663#1 871213663#0 -544489067#0 -872215578 -642893603 -879177025#0 -879177025#1 -111987075 -111987010#0 -879177024#0 -690613620#0 -690613625#0 -690613625#1 -918082989 -690613617 -690613619 894843877#2"/>
    </person>
    <person id="ped55" type="ped_pedestrian" depart="282.40">
        <walk edges="870991320#0 -690613625#1 -918082989 -690613617 -690613619 894843877#2 894843877#1 651080031 1054125802 1068364604#1 1068364603#1"/>
    </person>
    <person id="ped61" type="ped_pedestrian" depart="313.21">
        <walk edges="810350241#2 423423401#2 423423401#0"/>
    </person>
    <person id="ped71" type="ped_pedestrian" depart="364.55">
        <walk edges="1068364604#1 1054125802 651080031 894843877#1 894843877#2 -690613619 690613619 870991328#0 870991328#1 870991319#0"/>
    </person>
    <person id="ped79" type="ped_pedestrian" depart="405.63">
        <walk edges="103811747#2 103811757#1 103811757#0 103811735#1"/>
    </person>
    <person id="ped95" type="ped_pedestrian" depart="487.78">
        <walk edges="1157435277#1 1197045455#1" busStop="1294039033"/> <!-- Viva Homes -->
        <ride busStop="28997041" lines="417:0" intended="pt_bus_417:0.0" depart="634.00"/>
        <walk edges="1103029881 1103029876 1103029877 1103029878#0 1033118917#0 1103029835#2 1103029835#1 1103029863#2 1103029863#1 1103029858#1 1103029856#1 758880904#1 1103029872 574917579#1 544489068#1 871213663#1 871213663#0 -544489067#0 -872215578 -642893603 -879177025#0 -879177025#1 -111987075 -111987010#0 -879177024#0 -690613620#0 -690613625#0 -690613625#1 -918082989 -690613617 -690613619 894843877#2 894843877#1 870991327#0 1072631666#0"/>
    </person>
    <person id="ped105" type="ped_pedestrian" depart="539.12">
        <walk edges="1068364604#1 1054125802 651080031 894843877#1 894843877#2 -690613619 -690613617 -918082989 -690613625#1 -690613625#0 -690613620#0 -879177024#0 -111987010#0 -111987075 -879177025#1 -879177025#0 -642893603 -872215578 -544489067#0 871213663#0 871213663#1 544489068#1 574917579#1 1103029872 758880904#1 1103029856#1 1103029858#1 1103029863#1 1103029863#2 1103029835#1 1103029835#2 1033118917#0 1103029878#0 1103029877 1103029876 1103029881 1197045456#1 1197045455#1 1157435277#1 662913487 662913543 855258233#1"/>
    </person>
    <person id="ped125" type="ped_pedestrian" depart="641.81">
        <walk edges="1073795859 1103029833#0 1103029878#2 662913494#2" busStop="669558953"/> <!-- Sakada -->
        <walk edges="1103029876 1103029877 1103029878#0 1033118917#0 1103029835#2 1103029835#1 1103029863#2 1103029863#1 1103029858#1 1103029856#1 758880904#1"/>
    </person>
    <person id="ped129" type="ped_pedestrian" depart="662.35">
        <walk edges="1068364604#1 1054125802 651080031 894843877#1 894843877#2 -690613619 -690613617 879172096 690613625#1 690613620#1 879177024#1 111987010#1 111987010#0 111987075 879177025#1 879177025#0 872215569 544489067#1 879172124"/>
    </person>
    <person id="ped130" type="ped_pedestrian" depart="667.49">
        <walk edges="870991327#0"/>
    </person>
    <person id="ped156" type="ped_pedestrian" depart="800.99">
        <walk edges="1054125802 651080031 894843877#1 894843877#2 -690613619 -690613617 -918082989 -690613625#1 -690613625#0"/>
    </person>
    <person id="ped158" type="ped_pedestrian" depart="811.25">
        <walk edges="111987010#1 879177024#1 690613620#1 690613625#1 879172096 -918082989 -690613625#1 -690613625#0 -690613620#0 -879177024#0 -111987010#0 -111987075 -879177025#1 -879177025#0 -642893603 -872215578 -544489067#0 871213663#0 871213663#1 544489068#1 574917579#1"/>
    </person>
    <person id="ped183" type="ped_pedestrian" depart="939.62">
        <walk edges="1054125804 1068364604#1 1054125802 651080031 894843877#1 894843877#2 -690613619 -690613617 -918082989 -690613625#1 -690613625#0 -690613620#0 -879177024#0 -111987010#0 -111987075 -879177025#1 -879177025#0 -642893603 -872215578 -544489067#0 871213663#0 871213663#1 544489068#1 574917579#1 1103029872 758880904#1 1103029856#1 1103029858#1 1103029863#1 1103029863#2 1103029835#1 1103029835#2 1033118917#0 1103029878#0 1103029877 1103029876 1103029881 1197045456#1 1197045455#1 1157435277#1 662913487 662913543"/>
    </person>
    <person id="ped191" type="ped_pedestrian" depart="980.69">
        <walk edges="1073794504#2 1103029814#1 114213957#1 1103029862#1 544489112 662913537#0 1103029873 758887472 574917570#1 574917575#1 870991316 879172124 544489067#1 872215569 879177025#0 879177025#1 111987075"/>
    </person>
    <person id="ped194" type="ped_pedestrian" depart="996.10">
        <walk edges="879177024#1 111987010#1 111987010#0 111987075 879177025#1 879177025#0 872215569 544489067#1 879172124 870991316 574917575#1 574917570#1 758887472 1103029873 662913537#0 544489112 1103029862#1 114213957#1 1103029814#1 1103029833#1 1103029833#0 1103029878#2 662913494#2 662913494#1 662913494#0"/>
    </person>
    <person id="ped210" type="ped_pedestrian" depart="1078.25">
        <walk edges="114213957#1 1103029814#1 1103029833#1 1103029833#0 1103029878#2 662913494#2" busStop="669558953"/> <!-- Sakada -->
        <ride busStop="6205714720" lines="417:1" intended="pt_bus_417:1.1" depart="1630.00"/> <!-- Armstrong Village -->
        <walk edges="662913509#1 631177073"/>
    </person>
    <person id="ped223" type="ped_pedestrian" depart="1145.00">
        <walk edges="690613619 -690613617 -918082989 -690613625#1 -690613625#0 -690613620#0 -879177024#0 -111987010#0 -111987075 -879177025#1 -879177025#0 -642893603 -872215578 -544489067#0 871213663#0 871213663#1 544489068#1 574917579#1 1103029872 758880904#1 1103029856#1 1103029858#1 1103029863#1 1103029863#2 1103029835#1 1103029835#2 1033118917#0 1103029878#0 1103029877 1103029876 1103029881 1197045456#1 1197045455#1 1157435277#1 662913487 662913543 855258233#1 855258233#2 855258233#3 1073730516" busStop="6205714693"/>
        <walk edges="347971672"/>
    </person>
    <person id="ped245" type="ped_pedestrian" depart="1257.96">
        <walk edges="103811735#1"/>
    </person>
    <person id="ped248" type="ped_pedestrian" depart="1273.36">
        <walk edges="111987010#0 111987075 879177025#1 879177025#0 872215569 544489067#1 1001714111"/>
    </person>
    <person id="ped262" type="ped_pedestrian" depart="1345.24">
        <walk edges="651080027 1054125802 651080031 894843877#1 894843877#2 -690613619 -690613617 879172096 690613625#1 690613620#1 879177024#1 111987010#1 111987010#0 111987075 879177025#1 879177025#0 872215569 544489067#1 879172124 870991316 574917575#1 574917570#1 758887472"/>
    </person>
    <person id="ped267" type="ped_pedestrian" depart="1370.92">
        <walk edges="662913513#0 855258233#1 662913543 662913487 1157435277#1 1197045455#1" busStop="1294039033"/> <!-- Viva Homes -->
        <walk edges="781309125#0"/>
    </person>
    <person id="ped272" type="ped_pedestrian" depart="1396.59">
        <walk edges="1073794505 1073794504#2 1103029833#1 1103029833#0 1103029878#2 662913494#2" busStop="669558953"/> <!-- Sakada -->
        <ride busStop="6205714720" lines="32:0" intended="pt_bus_32:0.2" depart="1954.00"/> <!-- Armstrong Village -->
        <walk edges="662913509#1 645181686 781309125#0 662913494#0"/>
    </person>
    <person id="ped302" type="ped_pedestrian" depart="1550.62">
        <walk edges="662913511#2 662913511#1 1073730502 1073730514#0 1073730518" busStop="9849403598"/> <!-- Avida Sta. Cecilia -->
        <ride busStop="28997041" lines="32:1" intended="pt_bus_32:1.2" depart="1964.00"/>
        <walk edges="1103029881 1103029876 1103029877 1103029878#0 1033118917#0 1103029835#2 1103029835#1 1103029863#2 1103029863#1 1103029858#1 1103029856#1 758880904#1 1103029872 574917579#1 544489068#1 871213663#1 871213663#0 -544489067#0 -872215578 -642893603 -879177025#0 -879177025#1 -111987075 -111987010#0 -879177024#0 651080009#0"/>
    </person>
    <person id="ped305" type="ped_pedestrian" depart="1566.03">
        <walk edges="662913512#0 855258233#1 855258233#2 855258233#3" busStop="9849403598"/> <!-- Avida Sta. Cecilia -->
        <ride busStop="28997041" lines="32:1" intended="pt_bus_32:1.2" depart="1964.00"/>
        <walk edges="1103029881 1103029876 1103029877 1103029878#0 1033118917#0 1103029835#2 1103029835#1 1073794504#0"/>
    </person>
    <person id="ped316" type="ped_pedestrian" depart="1622.51">
        <walk edges="1073730502 1073730514#0 1073730518" busStop="9849403598"/> <!-- Avida Sta. Cecilia -->
        <ride busStop="28997041" lines="32:1" intended="pt_bus_32:1.2" depart="1964.00"/>
        <walk edges="1103029881 1103029876 1103029877 1103029878#0 1033118917#0 1103029835#2 1103029835#1 1103029863#2 1103029863#1 1103029858#1 1103029856#1 758880904#1 1103029872 574917579#1 544489068#1 871213663#1 871213663#0 -544489067#0 -872215578 -642893603 -879177025#0 -879177025#1 -111987075 -111987010#0 -879177024#0 -690613620#0"/>
    </person>
    <person id="ped339" type="ped_pedestrian" depart="1740.60">
        <walk edges="103811728 103811720 103811731#2 103811731#1 103811731#0"/>
    </person>
    <person id="ped345" type="ped_pedestrian" depart="1771.41">
        <walk edges="662913513#2 662913511#1 1073730502 1073730514#0 1073730518" busStop="9849403598"/> <!-- Avida Sta. Cecilia -->
        <ride busStop="1294039033" lines="Minibus:_SaveMore_San_Marino_→_Central_Mall_Dasmariñas:0" intended="pt_bus_Minibus:_SaveMore_San_Marino_→_Central_Mall_Dasmariñas:0.3" depart="2057.00"/> <!-- Viva Homes -->
        <walk edges="1203003335#2"/>
    </person>
    <person id="ped354" type="ped_pedestrian" depart="1817.62">
        <walk edges="1073730516 855258233#3" busStop="9849403598"/> <!-- Avida Sta. Cecilia -->
        <ride busStop="28997041" lines="32:1" intended="pt_bus_32:1.2" depart="1964.00"/>
        <walk edges="1103029881 1103029876 1103029877 1103029878#0 1033118917#0 1103029835#2 1103029835#1 1103029863#2 1103029863#1 1103029858#1 1103029856#1 758880904#1 1103029872 574917579#1 544489068#1 871213663#1 871213663#0 -544489067#0 -872215578 -642893603 -879177025#0 -879177025#1"/>
    </person>
    <person id="ped355" type="ped_pedestrian" depart="1822.75">
        <walk edges="662913511#1 1073730502 1073730514#0 1073730518" busStop="9849403598"/> <!-- Avida Sta. Cecilia -->
        <walk edges="855258233#3 855258233#2 662913513#0"/>
    </person>
    <person id="ped359" type="ped_pedestrian" depart="1843.29">
        <walk edges="1073800254 1103029856#1 758880904#1 1103029872 574917579#1 544489068#1 871213663#1 871213663#0 -544489067#0 -872215578 -642893603 -879177025#0 -879177025#1 -111987075 -111987010#0 -879177024#0 -690613620#0 -690613625#0 -690613625#1 -918082989 -690613617 -690613619 894843877#2 894843877#1 651080031 1054125802"/>
    </person>
    <person id="ped372" type="ped_pedestrian" depart="1910.04">
        <walk edges="1073730514#1 1073730514#0 1073730518" busStop="9849403598"/> <!-- Avida Sta. Cecilia -->
        <ride busStop="28997041" lines="32:1" intended="pt_bus_32:1.2" depart="1964.00"/>
        <walk edges="662913494#2 1103029878#2 1103029833#0 1103029833#1 1103029814#1 114213957#1 1103029862#1 544489112 662913537#0 1103029873 758887472 574917570#1 574917575#1 870991316 879172124 544489067#1 872215569 879177025#0 879177025#1"/>
    </person>
    <person id="ped396" type="ped_pedestrian" depart="2033.27">
        <walk edges="870991327#0 894843877#1 894843877#2 -690613619 -690613617 879172096 690613625#1 690613620#1 879177024#1 111987010#1 111987010#0 111987075 879177025#1 879177025#0 872215569 544489067#1 879172124 870991316"/>
    </person>
    <person id="ped398" type="ped_pedestrian" depart="2043.54">
        <walk edges="114213957#1 1103029862#1 544489112 662913537#0 1103029873 758887472 574917570#1 574917575#1 870991316 879172124"/>
    </person>
    <person id="ped409" type="ped_pedestrian" depart="2100.02">
        <walk edges="753312749#1" busStop="9849403598"/> <!-- Avida Sta. Cecilia -->
        <ride busStop="28997041" lines="32:1" intended="pt_bus_32:1.3" depart="2564.00"/>
        <walk edges="662913494#2 1103029878#2 1103029833#0 1103029833#1 1103029814#1 114213957#1 1103029862#1 544489112 662913537#0"/>
    </person>
    <person id="ped422" type="ped_pedestrian" depart="2166.77">
        <walk edges="864646202#0 91875567#1 91875567#0 864646205"/>
    </person>
    <person id="ped430" type="ped_pedestrian" depart="2207.84">
        <walk edges="870991319#1 870991319#0 870991328#1 870991328#0 690613619 -690613617 -918082989 -690613625#1 -690613625#0 -690613620#0 -879177024#0 -111987010#0 -111987075 -879177025#1 -879177025#0 -642893603 -872215578 -544489067#0 871213663#0 871213663#1 544489068#1 574917579#1 1103029872 758880904#1 1103029856#1 1103029858#1 1103029863#1 1103029863#2 1103029835#1 1103029835#2 1033118917#0 1103029878#0 1103029877 1103029876 1103029881 1197045456#1 1197045455#1"/>
    </person>
    <person id="ped437" type="ped_pedestrian" depart="2243.78">
        <walk edges="870991319#0 870991328#1 870991328#0 690613619 -690613617 -918082989 -690613625#1 -690613625#0 -690613620#0 -879177024#0 -111987010#0 -111987075 -879177025#1 -879177025#0 -642893603 -872215578 -544489067#0 871213663#0 871213663#1 544489068#1 574917579#1"/>
    </person>
    <person id="ped440" type="ped_pedestrian" depart="2259.19">
        <walk edges="1054125804 1054125805"/>
    </person>
    <person id="ped449" type="ped_pedestrian" depart="2305.40">
        <walk edges="538154664#0 538154664#1"/>
    </person>
    <person id="ped453" type="ped_pedestrian" depart="2325.94">
        <walk edges="662913511#0 1073730502 1073730514#0 1073730518" busStop="9849403598"/> <!-- Avida Sta. Cecilia -->
        <walk edges="753312749#1"/>
    </person>
    <person id="ped459" type="ped_pedestrian" depart="2356.74">
        <walk edges="662913494#0 781309125#0" busStop="1294039033"/> <!-- Viva Homes -->
        <ride busStop="28997041" lines="417:0" intended="pt_bus_417:0.3" depart="2434.00"/>
        <walk edges="662913494#2 1103029878#2 1103029833#0 1103029833#1 1103029814#1 114213957#1 1103029862#1 544489112 662913537#0 1103029873 758887472 574917570#1 574917575#1 870991316 879172124 544489067#1 872215569 879177025#0 879177025#1 111987075 111987010#0 111987010#1 879177024#1 690613620#1"/>
    </person>
    <person id="ped462" type="ped_pedestrian" depart="2372.15">
        <walk edges="651080009#0 -879177024#0 -111987010#0 -111987075 -879177025#1 -879177025#0 -642893603 -872215578 -544489067#0 871213663#0 871213663#1 544489068#1 574917579#1 1103029872 758880904#1 1103029856#1 1103029858#1 1103029863#1 1103029863#2 1103029835#1 1103029835#2 1033118917#0 1103029878#0 1103029877 1103029876" busStop="669558953"/> <!-- Sakada -->
        <walk edges="662913494#2 1103029878#2 1103029833#0 1103029833#1 1073794504#2"/>
    </person>
    <person id="ped474" type="ped_pedestrian" depart="2433.76">
        <walk edges="91875567#0 864646205"/>
    </person>
    <person id="ped487" type="ped_pedestrian" depart="2500.51">
        <walk edges="1073788864 1103029835#2 1033118917#0 1103029878#0 1103029877 1103029876" busStop="669558953"/> <!-- Sakada -->
        <walk edges="662913494#2 1103029878#2 1103029833#0 1103029833#1 1103029814#1 114213957#1 1103029862#1 544489112 662913537#0 1103029873 758887472 574917570#1 574917575#1 870991316 879172124 544489067#1 872215569 879177025#0 879177025#1 111987075"/>
    </person>
    <person id="ped490" type="ped_pedestrian" depart="2515.91">
        <walk edges="-690613619 690613619 870991328#0"/>
    </person>
    <person id="ped491" type="ped_pedestrian" depart="2521.05">
        <walk edges="-918082989 -690613625#1 -690613625#0 -690613620#0 -879177024#0 -111987010#0 -111987075 -879177025#1 -879177025#0 -642893603 -872215578 -544489067#0 871213663#0 871213663#1 544489068#1 574917579#1 1103029872 758880904#1 1103029856#1 1103029858#1 1103029863#1 1103029863#2 1103029835#1 1103029835#2 1033118917#0 1103029878#0 1103029877 1103029876 1103029881 1197045456#1 1197045455#1" busStop="1294039033"/> <!-- Viva Homes -->
        <walk edges="1203003335#2"/>
    </person>
    <person id="ped495" type="ped_pedestrian" depart="2541.59">
        <walk edges="114213957#1 1103029814#1 1103029833#1 1103029833#0 1103029878#2 662913494#2" busStop="669558953"/> <!-- Sakada -->
        <walk edges="1103029876 1103029877 1103029878#0 1033118917#0 1103029835#2 1103029835#1 1103029863#2 1103029863#1 1103029858#1 1103029856#1 758880904#1 1103029872 574917579#1 544489068#1 871213663#1 871213663#0 -544489067#0 -872215578 -642893603 -879177025#0 -879177025#1 -111987075 -111987010#0 -879177024#0 -690613620#0"/>
    </person>
    <person id="ped498" type="ped_pedestrian" depart="2556.99">
        <walk edges="1103029858#1 1103029863#1 1103029863#2 1103029835#1 1103029835#2 1033118917#0 1103029878#0 1103029877 1103029876" busStop="669558953"/> <!-- Sakada -->
        <ride busStop="6205714720" lines="32:0" intended="pt_bus_32:0.4" depart="3154.00"/> <!-- Armstrong Village -->
        <walk edges="1157435277#1 1197045455#1"/>
    </person>
    <person id="ped500" type="ped_pedestrian" depart="2567.26">
        <walk edges="-690613620#0 -879177024#0 -111987010#0 -111987075 -879177025#1 -879177025#0 -642893603 -872215578 -544489067#0 871213663#0 871213663#1 544489068#1 574917579#1 1103029872 758880904#1 1103029856#1 1103029858#1 1103029863#1 1103029863#2 1103029835#1 1103029835#2 1033118917#0 1103029878#0 1103029877 1103029876 1103029881 1197045456#1 1197045455#1 1157435277#1" busStop="6205714720"/> <!-- Armstrong Village -->
        <walk edges="662913509#1 662913511#2 662913511#1 662913511#0"/>
    </person>
    <person id="ped502" type="ped_pedestrian" depart="2577.53">
        <walk edges="1103029833#0 1103029878#2"/>
    </person>
    <person id="ped509" type="ped_pedestrian" depart="2613.47">
        <walk edges="-544489067#0 871213663#0 871213663#1 544489068#1 574917579#1 1103029872 758880904#1" busStop="5263361646"/> <!-- SaveMore Salawag -->
        <ride busStop="6205714720" lines="417:1" intended="pt_bus_417:1.5" depart="3945.00"/> <!-- Armstrong Village -->
        <walk edges="662913509#1 645181686 781309125#0"/>
    </person>
    <person id="ped510" type="ped_pedestrian" depart="2618.60">
        <walk edges="103811728 103811720 103811731#2"/>
    </person>
    <person id="ped525" type="ped_pedestrian" depart="2695.62">
        <walk edges="855258233#1 662913543 662913487 1157435277#1 1197045455#1" busStop="1294039033"/> <!-- Viva Homes -->
        <ride busStop="28997041" lines="32:1" intended="pt_bus_32:1.4" depart="3251.00"/>
        <walk edges="662913494#2 1103029878#2 1103029833#0 1103029833#1 1103029814#1 114213957#1 1103029862#1 544489112 662913537#0 1103029873 758887472 574917570#1 574917575#1 870991316 879172124 544489067#1 872215569 879177025#0 870991318#0"/>
    </person>
    <person id="ped542" type="ped_pedestrian" depart="2782.91">
        <walk edges="114213957#1 1103029862#1 544489112 662913537#0 1103029873 758887472 574917570#1 574917575#1 870991316 879172124 544489067#1 872215569 879177025#0 879177025#1 111987075 111987010#0 111987010#1 879177024#1 690613620#1 690613625#1 879172096 -690613617"/>
    </person>
    <person id="ped565" type="ped_pedestrian" depart="2901.00">
        <walk edges="662913513#2 662913511#1 1073730502 1073730514#0 1073730518" busStop="9849403598"/> <!-- Avida Sta. Cecilia -->
        <ride busStop="28997041" lines="32:1" intended="pt_bus_32:1.4" depart="3164.00"/>
        <walk edges="662913494#2 1103029878#2 1103029833#0 1103029833#1 1073794504#2"/>
    </person>
    <person id="ped572" type="ped_pedestrian" depart="2936.95">
        <walk edges="1103029858#1 1103029863#1 1103029863#2 1103029835#1 1103029835#2 1033118917#0 1103029878#0 1103029877 1103029876" busStop="669558953"/> <!-- Sakada -->
        <walk edges="662913494#2 1103029878#2 1103029833#0 1103029833#1 1103029814#1 114213957#1 1103029862#1 544489112 662913537#0 1103029873 758887472 574917570#1 574917575#1 870991316 879172124 544489067#1 872215569 879177025#0 879177025#1 111987075 111987010#0 111987010#1 879177024#1 690613620#1"/>
    </person>
    <person id="ped594" type="ped_pedestrian" depart="3049.90">
        <walk edges="538154664#2 538154664#1"/>
    </person>
    <person id="ped605" type="ped_pedestrian" depart="3106.38">
        <walk edges="-797720294 642896772 366952449#1"/>
    </person>
    <person id="ped621" type="ped_pedestrian" depart="3188.54">
        <walk edges="1073794504#2 1103029833#1 1103029833#0 1103029878#2 662913494#2" busStop="669558953"/> <!-- Sakada -->
        <ride busStop="6205714720" lines="417:1" intended="pt_bus_417:1.4" depart="3430.00"/> <!-- Armstrong Village -->
        <walk edges="662913509#1 1203003335#2"/>
    </person>
    <person id="ped627" type="ped_pedestrian" depart="3219.34">
        <walk edges="872215569 544489067#1 879172124 870991316 574917575#1 574917570#1 758887472 1103029873 662913537#0 544489112 1103029862#1 114213957#1 1103029814#1 1103029833#1 1103029833#0 1103029878#2 662913494#2 662913494#1 662913494#0 781309125#0" busStop="1294039033"/> <!-- Viva Homes -->
        <walk edges="1203003335#1"/>
    </person>
    <person id="ped637" type="ped_pedestrian" depart="3270.69">
        <walk edges="1073730502 1073730514#0 1073730518" busStop="9849403598"/> <!-- Avida Sta. Cecilia -->
        <ride busStop="28997041" lines="32:1" intended="pt_bus_32:1.5" depart="3764.00"/>
        <walk edges="662913494#2 1103029878#2 1103029833#0 1103029833#1 1103029814#1 114213957#1 1103029862#1 544489112 662913537#0 1103029873 758887472 574917570#1 574917575#1 870991316 879172124 544489067#1 872215569 879177025#0 879177025#1 111987075"/>
    </person>
    <person id="ped639" type="ped_pedestrian" depart="3280.96">
        <walk edges="855258233#3" busStop="9849403598"/> <!-- Avida Sta. Cecilia -->
        <ride busStop="28997041" lines="32:1" intended="pt_bus_32:1.5" depart="3764.00"/>
        <walk edges="662913494#2 1103029878#2 1103029833#0 1103029833#1 1103029814#1 114213957#1 1103029862#1 544489112 662913537#0 1103029873 758887472 574917570#1 574917575#1 870991316 879172124 544489067#1 872215569 879177025#0 879177025#1 111987075 111987010#0 111987010#1 651080009#1"/>
    </person>
    <person id="ped641" type="ped_pedestrian" depart="3291.23">
        <walk edges="662913494#1 662913494#0 781309125#0 645181686 662913509#1" busStop="6205714720"/> <!-- Armstrong Village -->
        <ride busStop="6205714701" lines="417:1" intended="pt_bus_417:1.4" depart="3587.00"/> <!-- Avida Sta. Cecilia -->
        <walk edges="1073730518 1073730514#0"/>
    </person>
    <person id="ped648" type="ped_pedestrian" depart="3327.17">
        <walk edges="879177023#1 879177024#1 111987010#1 111987010#0 111987075 879177025#1 879177025#0 872215569 544489067#1 879172124 870991316 574917575#1 574917570#1 758887472 1103029873 662913537#0 544489112 1103029862#1 114213957#1 1103029814#1 1073794504#2"/>
    </person>
    <person id="ped654" type="ped_pedestrian" depart="3357.98">
        <walk edges="1103029833#1 1103029833#0 1103029878#2 662913494#2" busStop="669558953"/> <!-- Sakada -->
        <walk edges="1103029876 1103029877 1103029878#0 1033118917#0 1103029835#2 1103029835#1"/>
    </person>
    <person id="ped668" type="ped_pedestrian" depart="3429.86">
        <walk edges="1197045455#1 1157435277#1" busStop="6205714720"/> <!-- Armstrong Village -->
        <ride busStop="6205714701" lines="32:0" intended="pt_bus_32:0.5" depart="3911.00"/> <!-- Avida Sta. Cecilia -->
        <walk edges="1073730518 1073730514#0"/>
    </person>
    <person id="ped686" type="ped_pedestrian" depart="3522.28">
        <walk edges="1095862682#2 -1095862682#1"/>
    </person>
    <person id="ped698" type="ped_pedestrian" depart="3583.89">
        <walk edges="715197010#0 810350241#1 810350241#2 810350241#3 538154665#1 423423400#0"/>
    </person>
</routes>
