<?xml version="1.0" encoding="UTF-8"?>

<!-- generated on 2024-04-02 14:34:25.329831 by osmWebWizard.py v1_19_0+0000-baa66a0f364
<configuration>
    <net-file value="C:\Users\Gabe Piano\Sumo\2024-04-02-14-34-14\osm.net.xml.gz"/>
    <output-trip-file value="C:\Users\Gabe Piano\Sumo\2024-04-02-14-34-14\osm.passenger.trips.xml"/>
    <route-file value="C:\Users\Gabe Piano\Sumo\2024-04-02-14-34-14\osm.passenger.rou.xml"/>
    <prefix value="veh"/>
    <trip-attributes value="departLane=&quot;best&quot;"/>
    <fringe-start-attributes value="departSpeed=&quot;max&quot;"/>
    <vehicle-class value="passenger"/>
    <lanes value="True"/>
    <fringe-factor value="5"/>
    <allow-fringe.min-length value="1000.0"/>
    <via-edge-types value="highway.motorway,highway.motorway_link,highway.trunk_link,highway.primary_link,highway.secondary_link,highway.tertiary_link"/>
    <min-distance value="300.0"/>
    <min-distance.fringe value="10.0"/>
    <remove-loops value="True"/>
    <validate value="True"/>
    <insertion-density value="12.0"/>
</configuration>
-->

<!-- generated on 2024-04-02 14:34:25 by Eclipse SUMO duarouter Version 1.19.0
<configuration xmlns:xsi="http://www.w3.org/2001/XMLSchema-instance" xsi:noNamespaceSchemaLocation="http://sumo.dlr.de/xsd/duarouterConfiguration.xsd">

    <input>
        <net-file value="C:\Users\Gabe Piano\Sumo\2024-04-02-14-34-14\osm.net.xml.gz"/>
        <route-files value="C:\Users\Gabe Piano\Sumo\2024-04-02-14-34-14\osm.passenger.trips.xml"/>
    </input>

    <output>
        <output-file value="C:\Users\Gabe Piano\Sumo\2024-04-02-14-34-14\osm.passenger.trips.xml.tmp"/>
        <alternatives-output value="NUL"/>
        <write-trips value="true"/>
    </output>

    <processing>
        <remove-loops value="true"/>
    </processing>

    <time>
        <begin value="0.0"/>
        <end value="3600.0"/>
    </time>

    <report>
        <no-warnings value="true"/>
        <ignore-errors value="true"/>
        <no-step-log value="true"/>
    </report>

</configuration>
-->

<routes xmlns:xsi="http://www.w3.org/2001/XMLSchema-instance" xsi:noNamespaceSchemaLocation="http://sumo.dlr.de/xsd/routes_file.xsd">
    <vType id="veh_passenger" vClass="passenger"/>
    <trip id="veh1" type="veh_passenger" depart="5.86" departLane="best" from="-111987075" to="1090755562#1"/>
    <trip id="veh2" type="veh_passenger" depart="11.72" departLane="best" from="767517245" to="660352590"/>
    <trip id="veh3" type="veh_passenger" depart="17.57" departLane="best" departSpeed="max" from="366882273" to="-544489067#0"/>
    <trip id="veh4" type="veh_passenger" depart="23.43" departLane="best" from="1103029862#1" to="540589200"/>
    <trip id="veh6" type="veh_passenger" depart="35.15" departLane="best" departSpeed="max" from="665787416" to="544489067#1"/>
    <trip id="veh8" type="veh_passenger" depart="46.86" departLane="best" from="870991316" to="111987010#0"/>
    <trip id="veh9" type="veh_passenger" depart="52.72" departLane="best" departSpeed="max" from="870991315#0" to="665214718#1"/>
    <trip id="veh11" type="veh_passenger" depart="64.44" departLane="best" from="-918082989" to="-111987010#0"/>
    <trip id="veh12" type="veh_passenger" depart="70.30" departLane="best" from="544489067#1" to="111987010#1"/>
    <trip id="veh13" type="veh_passenger" depart="76.15" departLane="best" from="870991316" to="624604435#0"/>
    <trip id="veh14" type="veh_passenger" depart="82.01" departLane="best" departSpeed="max" from="870991315#0" to="690613617"/>
    <trip id="veh15" type="veh_passenger" depart="87.87" departLane="best" departSpeed="max" from="580815653#0" to="918082981-AddedOnRampEdge"/>
    <trip id="veh16" type="veh_passenger" depart="93.73" departLane="best" from="870991324#0" to="642896772"/>
    <trip id="veh17" type="veh_passenger" depart="99.59" departLane="best" from="690613620#1" to="690613617"/>
    <trip id="veh18" type="veh_passenger" depart="105.44" departLane="best" from="1103029863#1" to="1103029866"/>
    <trip id="veh19" type="veh_passenger" depart="111.30" departLane="best" from="-690613625#0" to="1103029814#1"/>
    <trip id="veh20" type="veh_passenger" depart="117.16" departLane="best" from="-879172095" to="1103029863#1"/>
    <trip id="veh21" type="veh_passenger" depart="123.02" departLane="best" from="665214718#1" to="114213935#1"/>
    <trip id="veh23" type="veh_passenger" depart="134.73" departLane="best" from="111987010#1" to="879177024#1"/>
    <trip id="veh24" type="veh_passenger" depart="140.59" departLane="best" departSpeed="max" from="665787416" to="624604436"/>
    <trip id="veh25" type="veh_passenger" depart="146.45" departLane="best" from="1054125801#0" to="114213957#1"/>
    <trip id="veh26" type="veh_passenger" depart="152.31" departLane="best" from="580815653#2" to="661088487"/>
    <trip id="veh27" type="veh_passenger" depart="158.16" departLane="best" from="870991328#0" to="767517245"/>
    <trip id="veh28" type="veh_passenger" depart="164.02" departLane="best" from="1103029863#1" to="879172124"/>
    <trip id="veh29" type="veh_passenger" depart="169.88" departLane="best" departSpeed="max" from="114216316" to="1103029858#1"/>
    <trip id="veh30" type="veh_passenger" depart="175.74" departLane="best" from="1103029856#1" to="879177025#0"/>
    <trip id="veh33" type="veh_passenger" depart="193.31" departLane="best" from="879177025#1" to="183690512#3"/>
    <trip id="veh34" type="veh_passenger" depart="199.17" departLane="best" from="-111987010#0" to="1103029833#1"/>
    <trip id="veh35" type="veh_passenger" depart="205.03" departLane="best" from="580815653#2" to="1103029856#1"/>
    <trip id="veh36" type="veh_passenger" depart="210.89" departLane="best" from="628567807" to="878958165#1"/>
    <trip id="veh37" type="veh_passenger" depart="216.74" departLane="best" departSpeed="max" from="366882273" to="1090755562#1"/>
    <trip id="veh38" type="veh_passenger" depart="222.60" departLane="best" departSpeed="max" from="993441705" to="540589200"/>
    <trip id="veh39" type="veh_passenger" depart="228.46" departLane="best" from="111987010#1" to="642896772"/>
    <trip id="veh40" type="veh_passenger" depart="234.32" departLane="best" departSpeed="max" from="864498341" to="1198531266"/>
    <trip id="veh41" type="veh_passenger" depart="240.18" departLane="best" from="-690613619" to="114213957#1"/>
    <trip id="veh42" type="veh_passenger" depart="246.03" departLane="best" departSpeed="max" from="993441705" to="540589202"/>
    <trip id="veh43" type="veh_passenger" depart="251.89" departLane="best" departSpeed="max" from="918082993" to="871213663#1"/>
    <trip id="veh44" type="veh_passenger" depart="257.75" departLane="best" from="111987075" to="684278129"/>
    <trip id="veh46" type="veh_passenger" depart="269.47" departLane="best" from="111987010#0" to="642896772"/>
    <trip id="veh47" type="veh_passenger" depart="275.32" departLane="best" from="111987010#1" to="158466192#1"/>
    <trip id="veh48" type="veh_passenger" depart="281.18" departLane="best" from="427551889#1" to="-879177025#1"/>
    <trip id="veh50" type="veh_passenger" depart="292.90" departLane="best" from="574917570#1" to="1072529521"/>
    <trip id="veh51" type="veh_passenger" depart="298.76" departLane="best" from="114213938" to="642896772"/>
    <trip id="veh54" type="veh_passenger" depart="316.33" departLane="best" departSpeed="max" from="864498341" to="540589202"/>
    <trip id="veh55" type="veh_passenger" depart="322.19" departLane="best" from="-111987010#0" to="1111218371#2"/>
    <trip id="veh56" type="veh_passenger" depart="328.05" departLane="best" departSpeed="max" from="-540589202" to="879172124"/>
    <trip id="veh58" type="veh_passenger" depart="339.76" departLane="best" departSpeed="max" from="114216316" to="879177024#1"/>
    <trip id="veh60" type="veh_passenger" depart="351.48" departLane="best" from="690613625#1" to="366952449#1"/>
    <trip id="veh61" type="veh_passenger" depart="357.33" departLane="best" from="-690613620#0" to="758880904#1"/>
    <trip id="veh63" type="veh_passenger" depart="369.05" departLane="best" from="-872215578" to="544489068#1"/>
    <trip id="veh64" type="veh_passenger" depart="374.91" departLane="best" departSpeed="max" from="366882273" to="1090755562#1"/>
    <trip id="veh65" type="veh_passenger" depart="380.77" departLane="best" departSpeed="max" from="580815653#0" to="-690613617"/>
    <trip id="veh66" type="veh_passenger" depart="386.62" departLane="best" from="1103029835#1" to="1111218371#2"/>
    <trip id="veh67" type="veh_passenger" depart="392.48" departLane="best" departSpeed="max" from="993441705" to="651079972"/>
    <trip id="veh68" type="veh_passenger" depart="398.34" departLane="best" from="366949696" to="540589202"/>
    <trip id="veh69" type="veh_passenger" depart="404.20" departLane="best" from="-879177025#0" to="1090755562#1"/>
    <trip id="veh71" type="veh_passenger" depart="415.91" departLane="best" from="1103029863#2" to="1090755562#1"/>
    <trip id="veh72" type="veh_passenger" depart="421.77" departLane="best" from="879177024#1" to="642896772"/>
    <trip id="veh73" type="veh_passenger" depart="427.63" departLane="best" from="1103029863#1" to="878958179#0"/>
    <trip id="veh74" type="veh_passenger" depart="433.49" departLane="best" from="872215569" to="690613620#1"/>
    <trip id="veh75" type="veh_passenger" depart="439.35" departLane="best" from="1103029866" to="660352585"/>
    <trip id="veh76" type="veh_passenger" depart="445.20" departLane="best" from="1103029858#1" to="1033118917#1"/>
    <trip id="veh77" type="veh_passenger" depart="451.06" departLane="best" from="918082981-AddedOnRampEdge" to="574917575#1"/>
    <trip id="veh78" type="veh_passenger" depart="456.92" departLane="best" from="544489067#1" to="863227697"/>
    <trip id="veh79" type="veh_passenger" depart="462.78" departLane="best" departSpeed="max" from="870991315#0" to="1072529522#0"/>
    <trip id="veh80" type="veh_passenger" depart="468.64" departLane="best" from="-872215578" to="158326567#0"/>
    <trip id="veh81" type="veh_passenger" depart="474.49" departLane="best" departSpeed="max" from="366882273" to="183690512#3"/>
    <trip id="veh82" type="veh_passenger" depart="480.35" departLane="best" from="759516987#2" to="660352590"/>
    <trip id="veh83" type="veh_passenger" depart="486.21" departLane="best" departSpeed="max" from="993441705" to="-879177024#0"/>
    <trip id="veh84" type="veh_passenger" depart="492.07" departLane="best" departSpeed="max" from="366882273" to="-111987010#0"/>
    <trip id="veh85" type="veh_passenger" depart="497.93" departLane="best" from="-642893603" to="1103029835#1"/>
    <trip id="veh86" type="veh_passenger" depart="503.78" departLane="best" from="1103029833#0" to="183690512#3"/>
    <trip id="veh87" type="veh_passenger" depart="509.64" departLane="best" departSpeed="max" from="366882273" to="1103029863#1"/>
    <trip id="veh89" type="veh_passenger" depart="521.36" departLane="best" from="366949696" to="871213663#1"/>
    <trip id="veh90" type="veh_passenger" depart="527.22" departLane="best" departSpeed="max" from="580815653#0" to="-690613619"/>
    <trip id="veh91" type="veh_passenger" depart="533.07" departLane="best" departSpeed="max" from="993441705" to="684278129"/>
    <trip id="veh92" type="veh_passenger" depart="538.93" departLane="best" departSpeed="max" from="918082993" to="-544489067#0"/>
    <trip id="veh93" type="veh_passenger" depart="544.79" departLane="best" from="870991316" to="1072529521"/>
    <trip id="veh94" type="veh_passenger" depart="550.65" departLane="best" from="544489112" to="1090755562#1"/>
    <trip id="veh95" type="veh_passenger" depart="556.50" departLane="best" departSpeed="max" from="366882273" to="-690613620#0"/>
    <trip id="veh96" type="veh_passenger" depart="562.36" departLane="best" from="158326567#0" to="918082982"/>
    <trip id="veh97" type="veh_passenger" depart="568.22" departLane="best" from="111987010#0" to="863227697"/>
    <trip id="veh98" type="veh_passenger" depart="574.08" departLane="best" from="427551889#1" to="1198531266"/>
    <trip id="veh99" type="veh_passenger" depart="579.94" departLane="best" from="580815653#2" to="-684278128"/>
    <trip id="veh100" type="veh_passenger" depart="585.79" departLane="best" from="1033158919#1" to="1111218371#1"/>
    <trip id="veh101" type="veh_passenger" depart="591.65" departLane="best" departSpeed="max" from="918082993" to="574917579#1"/>
    <trip id="veh102" type="veh_passenger" depart="597.51" departLane="best" departSpeed="max" from="580815653#0" to="-690613625#1"/>
    <trip id="veh103" type="veh_passenger" depart="603.37" departLane="best" from="-690613617" to="574917579#1"/>
    <trip id="veh104" type="veh_passenger" depart="609.23" departLane="best" from="574917575#1" to="870991328#1"/>
    <trip id="veh105" type="veh_passenger" depart="615.08" departLane="best" from="690613620#1" to="1072529521"/>
    <trip id="veh106" type="veh_passenger" depart="620.94" departLane="best" from="662913537#0" to="879177025#1"/>
    <trip id="veh107" type="veh_passenger" depart="626.80" departLane="best" from="-544489067#0" to="1103029833#1"/>
    <trip id="veh108" type="veh_passenger" depart="632.66" departLane="best" from="651079972" to="642896772"/>
    <trip id="veh109" type="veh_passenger" depart="638.52" departLane="best" departSpeed="max" from="366882273" to="574917579#1"/>
    <trip id="veh110" type="veh_passenger" depart="644.37" departLane="best" departSpeed="max" from="580815653#0" to="-690613620#0"/>
    <trip id="veh111" type="veh_passenger" depart="650.23" departLane="best" from="1103029835#2" to="683268248#1"/>
    <trip id="veh113" type="veh_passenger" depart="661.95" departLane="best" from="683268239" to="1111218371#2"/>
    <trip id="veh114" type="veh_passenger" depart="667.81" departLane="best" departSpeed="max" from="114216316" to="690613625#1"/>
    <trip id="veh115" type="veh_passenger" depart="673.66" departLane="best" from="879177024#1" to="183690512#3"/>
    <trip id="veh116" type="veh_passenger" depart="679.52" departLane="best" departSpeed="max" from="993441705" to="-918082989"/>
    <trip id="veh117" type="veh_passenger" depart="685.38" departLane="best" from="-690613620#0" to="1090755562#1"/>
    <trip id="veh118" type="veh_passenger" depart="691.24" departLane="best" from="111987010#0" to="879177024#1"/>
    <trip id="veh119" type="veh_passenger" depart="697.10" departLane="best" from="878958179#2" to="878958165#1"/>
    <trip id="veh122" type="veh_passenger" depart="714.67" departLane="best" from="660352585" to="918082982"/>
    <trip id="veh123" type="veh_passenger" depart="720.53" departLane="best" departSpeed="max" from="665787416" to="111987010#0"/>
    <trip id="veh124" type="veh_passenger" depart="726.39" departLane="best" from="870991319#1" to="1111218371#2"/>
    <trip id="veh125" type="veh_passenger" depart="732.24" departLane="best" departSpeed="max" from="665787416" to="879177025#0"/>
    <trip id="veh126" type="veh_passenger" depart="738.10" departLane="best" from="-918082989" to="-879177025#1"/>
    <trip id="veh127" type="veh_passenger" depart="743.96" departLane="best" from="-879177024#0" to="544489112"/>
    <trip id="veh128" type="veh_passenger" depart="749.82" departLane="best" from="111987010#1" to="624604436"/>
    <trip id="veh129" type="veh_passenger" depart="755.68" departLane="best" from="661088487" to="1090755562#1"/>
    <trip id="veh130" type="veh_passenger" depart="761.53" departLane="best" from="665214718#1" to="1103029856#1"/>
    <trip id="veh131" type="veh_passenger" depart="767.39" departLane="best" from="561748193" to="878958179#0"/>
    <trip id="veh132" type="veh_passenger" depart="773.25" departLane="best" from="870991328#1" to="-879172095"/>
    <trip id="veh133" type="veh_passenger" depart="779.11" departLane="best" departSpeed="max" from="366882273" to="1103029863#1"/>
    <trip id="veh135" type="veh_passenger" depart="790.82" departLane="best" from="665214718#1" to="1103029856#1"/>
    <trip id="veh136" type="veh_passenger" depart="796.68" departLane="best" from="767517245" to="544489112"/>
    <trip id="veh137" type="veh_passenger" depart="802.54" departLane="best" departSpeed="max" from="366882273" to="-111987075"/>
    <trip id="veh138" type="veh_passenger" depart="808.40" departLane="best" from="-690613620#0" to="878958165#1"/>
    <trip id="veh139" type="veh_passenger" depart="814.25" departLane="best" from="-879177025#0" to="544489068#1"/>
    <trip id="veh140" type="veh_passenger" depart="820.11" departLane="best" from="870991324#0" to="574917579#1"/>
    <trip id="veh141" type="veh_passenger" depart="825.97" departLane="best" departSpeed="max" from="114216316" to="878958165#1"/>
    <trip id="veh142" type="veh_passenger" depart="831.83" departLane="best" from="-690613620#0" to="1090755562#1"/>
    <trip id="veh144" type="veh_passenger" depart="843.54" departLane="best" departSpeed="max" from="864498341" to="878958165#1"/>
    <trip id="veh145" type="veh_passenger" depart="849.40" departLane="best" departSpeed="max" from="366882273" to="642896772"/>
    <trip id="veh146" type="veh_passenger" depart="855.26" departLane="best" from="1033158919#1" to="-690613620#0"/>
    <trip id="veh147" type="veh_passenger" depart="861.12" departLane="best" from="872215569" to="918082981-AddedOnRampEdge"/>
    <trip id="veh148" type="veh_passenger" depart="866.98" departLane="best" from="870991316" to="878958165#1"/>
    <trip id="veh149" type="veh_passenger" depart="872.83" departLane="best" departSpeed="max" from="-540589202" to="690613620#1"/>
    <trip id="veh150" type="veh_passenger" depart="878.69" departLane="best" departSpeed="max" from="114216316" to="879177024#1"/>
    <trip id="veh151" type="veh_passenger" depart="884.55" departLane="best" from="870991316" to="1103029858#1"/>
    <trip id="veh152" type="veh_passenger" depart="890.41" departLane="best" departSpeed="max" from="864498341" to="879177025#0"/>
    <trip id="veh154" type="veh_passenger" depart="902.12" departLane="best" from="1103029862#1" to="870991316"/>
    <trip id="veh155" type="veh_passenger" depart="907.98" departLane="best" from="427551889#1-AddedOffRampEdge" to="1111218371#2"/>
    <trip id="veh156" type="veh_passenger" depart="913.84" departLane="best" departSpeed="max" from="870991315#0" to="1090755562#1"/>
    <trip id="veh157" type="veh_passenger" depart="919.70" departLane="best" departSpeed="max" from="-540589202" to="1072529522#0"/>
    <trip id="veh158" type="veh_passenger" depart="925.56" departLane="best" departSpeed="max" from="114216316" to="871213663#1"/>
    <trip id="veh159" type="veh_passenger" depart="931.41" departLane="best" departSpeed="max" from="918082993" to="1103029863#1"/>
    <trip id="veh161" type="veh_passenger" depart="943.13" departLane="best" departSpeed="max" from="993441705" to="540589202"/>
    <trip id="veh162" type="veh_passenger" depart="948.99" departLane="best" from="918082982" to="-879177025#1"/>
    <trip id="veh163" type="veh_passenger" depart="954.85" departLane="best" departSpeed="max" from="918082993" to="1072529521"/>
    <trip id="veh164" type="veh_passenger" depart="960.70" departLane="best" departSpeed="max" from="918082993" to="1103029858#1"/>
    <trip id="veh165" type="veh_passenger" depart="966.56" departLane="best" from="111987010#1" to="158466192#1"/>
    <trip id="veh166" type="veh_passenger" depart="972.42" departLane="best" from="759516987#2" to="1111218371#2"/>
    <trip id="veh167" type="veh_passenger" depart="978.28" departLane="best" from="660352582#1" to="540589202"/>
    <trip id="veh168" type="veh_passenger" depart="984.14" departLane="best" from="158466192#1" to="574917575#1"/>
    <trip id="veh169" type="veh_passenger" depart="989.99" departLane="best" from="1111218372#0" to="683268239"/>
    <trip id="veh170" type="veh_passenger" depart="995.85" departLane="best" from="-111987010#0" to="-544489067#0"/>
    <trip id="veh171" type="veh_passenger" depart="1001.71" departLane="best" departSpeed="max" from="580815653#0" to="684278129"/>
    <trip id="veh172" type="veh_passenger" depart="1007.57" departLane="best" from="894843877#2" to="660352585"/>
    <trip id="veh175" type="veh_passenger" depart="1025.14" departLane="best" departSpeed="max" from="114216316" to="870991324#1"/>
    <trip id="veh176" type="veh_passenger" depart="1031.00" departLane="best" from="661088487" to="1111218371#2"/>
    <trip id="veh177" type="veh_passenger" depart="1036.86" departLane="best" departSpeed="max" from="114216316" to="1197045457"/>
    <trip id="veh178" type="veh_passenger" depart="1042.71" departLane="best" departSpeed="max" from="366882273" to="1111218371#1"/>
    <trip id="veh179" type="veh_passenger" depart="1048.57" departLane="best" from="-879177025#1" to="1198531266"/>
    <trip id="veh180" type="veh_passenger" depart="1054.43" departLane="best" from="879177025#0" to="642896772"/>
    <trip id="veh181" type="veh_passenger" depart="1060.29" departLane="best" from="114213938" to="544489068#1"/>
    <trip id="veh182" type="veh_passenger" depart="1066.15" departLane="best" from="-111987010#0" to="1103029866"/>
    <trip id="veh183" type="veh_passenger" depart="1072.00" departLane="best" departSpeed="max" from="366882273" to="574917579#1"/>
    <trip id="veh184" type="veh_passenger" depart="1077.86" departLane="best" departSpeed="max" from="665787416" to="183690512#3"/>
    <trip id="veh185" type="veh_passenger" depart="1083.72" departLane="best" from="366949696" to="1090755562#1"/>
    <trip id="veh186" type="veh_passenger" depart="1089.58" departLane="best" from="-872215578" to="878958165#1"/>
    <trip id="veh187" type="veh_passenger" depart="1095.44" departLane="best" departSpeed="max" from="870991315#0" to="1072529521"/>
    <trip id="veh188" type="veh_passenger" depart="1101.29" departLane="best" from="-690613625#1" to="540589202"/>
    <trip id="veh189" type="veh_passenger" depart="1107.15" departLane="best" from="665214718#1" to="-111987010#0"/>
    <trip id="veh190" type="veh_passenger" depart="1113.01" departLane="best" from="870991319#1" to="-690613625#1"/>
    <trip id="veh191" type="veh_passenger" depart="1118.87" departLane="best" from="683268239" to="1090755562#1"/>
    <trip id="veh194" type="veh_passenger" depart="1136.44" departLane="best" from="870991316" to="690613620#1"/>
    <trip id="veh195" type="veh_passenger" depart="1142.30" departLane="best" departSpeed="max" from="366882273" to="642896772"/>
    <trip id="veh196" type="veh_passenger" depart="1148.16" departLane="best" from="1103029833#1" to="665214718#1"/>
    <trip id="veh197" type="veh_passenger" depart="1154.02" departLane="best" from="561748193" to="1103029833#1"/>
    <trip id="veh198" type="veh_passenger" depart="1159.87" departLane="best" departSpeed="max" from="665787416" to="111987010#0"/>
    <trip id="veh200" type="veh_passenger" depart="1171.59" departLane="best" from="-879177024#0" to="1203000717"/>
    <trip id="veh201" type="veh_passenger" depart="1177.45" departLane="best" from="1090755561#1" to="870991328#0"/>
    <trip id="veh202" type="veh_passenger" depart="1183.31" departLane="best" departSpeed="max" from="580815653#0" to="-690613617"/>
    <trip id="veh204" type="veh_passenger" depart="1195.02" departLane="best" from="427551889#1-AddedOffRampEdge" to="870991314#1"/>
    <trip id="veh205" type="veh_passenger" depart="1200.88" departLane="best" departSpeed="max" from="665787416" to="918082982"/>
    <trip id="veh206" type="veh_passenger" depart="1206.74" departLane="best" from="651079972" to="879177025#1"/>
    <trip id="veh208" type="veh_passenger" depart="1218.45" departLane="best" from="661088487" to="540589200"/>
    <trip id="veh209" type="veh_passenger" depart="1224.31" departLane="best" from="870991324#0" to="544489068#1"/>
    <trip id="veh210" type="veh_passenger" depart="1230.17" departLane="best" from="879177024#1" to="690613620#1"/>
    <trip id="veh211" type="veh_passenger" depart="1236.03" departLane="best" from="-872215578" to="1103029856#1"/>
    <trip id="veh214" type="veh_passenger" depart="1253.60" departLane="best" from="-690613625#0" to="1103029863#2"/>
    <trip id="veh215" type="veh_passenger" depart="1259.46" departLane="best" from="-879177024#0" to="1111218371#2"/>
    <trip id="veh216" type="veh_passenger" depart="1265.32" departLane="best" departSpeed="max" from="580815653#0" to="1033118918"/>
    <trip id="veh217" type="veh_passenger" depart="1271.17" departLane="best" from="1103029863#2" to="665214718#1"/>
    <trip id="veh218" type="veh_passenger" depart="1277.03" departLane="best" from="-690613625#0" to="-690613620#0"/>
    <trip id="veh219" type="veh_passenger" depart="1282.89" departLane="best" departSpeed="max" from="366882273" to="-872215578"/>
    <trip id="veh220" type="veh_passenger" depart="1288.75" departLane="best" departSpeed="max" from="366882273" to="1090755562#1"/>
    <trip id="veh221" type="veh_passenger" depart="1294.61" departLane="best" departSpeed="max" from="366882273" to="878958179#0"/>
    <trip id="veh222" type="veh_passenger" depart="1300.46" departLane="best" from="628567807" to="665214718#1"/>
    <trip id="veh224" type="veh_passenger" depart="1312.18" departLane="best" from="158326567#0" to="111987010#0"/>
    <trip id="veh225" type="veh_passenger" depart="1318.04" departLane="best" from="1198531265" to="708496109"/>
    <trip id="veh226" type="veh_passenger" depart="1323.90" departLane="best" from="871213663#1" to="879177025#1"/>
    <trip id="veh227" type="veh_passenger" depart="1329.75" departLane="best" departSpeed="max" from="366882273" to="-690613625#1"/>
    <trip id="veh228" type="veh_passenger" depart="1335.61" departLane="best" departSpeed="max" from="580815653#0" to="183689805#1"/>
    <trip id="veh229" type="veh_passenger" depart="1341.47" departLane="best" from="1103029862#1" to="1090755562#1"/>
    <trip id="veh230" type="veh_passenger" depart="1347.33" departLane="best" departSpeed="max" from="366882273" to="-544489067#0"/>
    <trip id="veh231" type="veh_passenger" depart="1353.19" departLane="best" from="1197045457" to="708496109"/>
    <trip id="veh232" type="veh_passenger" depart="1359.04" departLane="best" from="540589200" to="1033118917#0"/>
    <trip id="veh235" type="veh_passenger" depart="1376.62" departLane="best" departSpeed="max" from="-540589202" to="642896772"/>
    <trip id="veh236" type="veh_passenger" depart="1382.48" departLane="best" from="1033118917#0" to="183690512#3"/>
    <trip id="veh237" type="veh_passenger" depart="1388.33" departLane="best" from="-642893603" to="114213938"/>
    <trip id="veh240" type="veh_passenger" depart="1405.91" departLane="best" from="1111218372#0" to="544489067#1"/>
    <trip id="veh241" type="veh_passenger" depart="1411.77" departLane="best" departSpeed="max" from="-540589202" to="544489067#1"/>
    <trip id="veh242" type="veh_passenger" depart="1417.62" departLane="best" departSpeed="max" from="993441705" to="-879177024#0"/>
    <trip id="veh243" type="veh_passenger" depart="1423.48" departLane="best" departSpeed="max" from="665787416" to="775185678"/>
    <trip id="veh244" type="veh_passenger" depart="1429.34" departLane="best" departSpeed="max" from="665787416" to="708496109"/>
    <trip id="veh247" type="veh_passenger" depart="1446.91" departLane="best" from="-879177025#1" to="660352585"/>
    <trip id="veh248" type="veh_passenger" depart="1452.77" departLane="best" from="624604434#1" to="1090755562#1"/>
    <trip id="veh250" type="veh_passenger" depart="1464.49" departLane="best" from="863227697" to="-879177025#1"/>
    <trip id="veh251" type="veh_passenger" depart="1470.34" departLane="best" from="870991319#1" to="918082981"/>
    <trip id="veh253" type="veh_passenger" depart="1482.06" departLane="best" departSpeed="max" from="114216316" to="708496109"/>
    <trip id="veh255" type="veh_passenger" depart="1493.78" departLane="best" from="690613617" to="642896772"/>
    <trip id="veh256" type="veh_passenger" depart="1499.63" departLane="best" from="879172096" to="767517245"/>
    <trip id="veh257" type="veh_passenger" depart="1505.49" departLane="best" from="870991316" to="624604434#1"/>
    <trip id="veh258" type="veh_passenger" depart="1511.35" departLane="best" from="879177025#0" to="918082982"/>
    <trip id="veh259" type="veh_passenger" depart="1517.21" departLane="best" departSpeed="max" from="864498341" to="111987010#1"/>
    <trip id="veh260" type="veh_passenger" depart="1523.07" departLane="best" departSpeed="max" from="366882273" to="114213935#2"/>
    <trip id="veh261" type="veh_passenger" depart="1528.92" departLane="best" from="574917575#1" to="111987010#0"/>
    <trip id="veh262" type="veh_passenger" depart="1534.78" departLane="best" from="870991316" to="870991319#0"/>
    <trip id="veh263" type="veh_passenger" depart="1540.64" departLane="best" from="111987010#1" to="918082981"/>
    <trip id="veh264" type="veh_passenger" depart="1546.50" departLane="best" from="690613620#1" to="158466192#1"/>
    <trip id="veh265" type="veh_passenger" depart="1552.36" departLane="best" from="759516987#2" to="918082981"/>
    <trip id="veh266" type="veh_passenger" depart="1558.21" departLane="best" from="-879177024#0" to="870991314#1"/>
    <trip id="veh267" type="veh_passenger" depart="1564.07" departLane="best" departSpeed="max" from="580815653#0" to="366952449#1"/>
    <trip id="veh268" type="veh_passenger" depart="1569.93" departLane="best" departSpeed="max" from="366882273" to="690613619"/>
    <trip id="veh269" type="veh_passenger" depart="1575.79" departLane="best" from="111987010#1" to="870991328#1"/>
    <trip id="veh270" type="veh_passenger" depart="1581.65" departLane="best" from="870991324#0" to="-872215578"/>
    <trip id="veh271" type="veh_passenger" depart="1587.50" departLane="best" from="-879172095" to="1103029833#1"/>