<?xml version="1.0" encoding="UTF-8"?>

<!-- generated on 2024-03-25 16:01:48.051784 by osmWebWizard.py v1_19_0+0000-baa66a0f364
<configuration>
    <net-file value="C:\Users\Gabe Piano\Sumo\2024-03-25-16-01-18\osm.net.xml.gz"/>
    <additional-files value="C:\Users\Gabe Piano\Sumo\2024-03-25-16-01-18\osm_stops.add.xml,C:\Users\Gabe Piano\Sumo\2024-03-25-16-01-18\osm_pt.rou.xml"/>
    <output-trip-file value="C:\Users\Gabe Piano\Sumo\2024-03-25-16-01-18\osm.pedestrian.trips.xml"/>
    <route-file value="C:\Users\Gabe Piano\Sumo\2024-03-25-16-01-18\osm.pedestrian.rou.xml"/>
    <persontrips value="True"/>
    <persontrip.walk-opposite-factor value="0.8"/>
    <prefix value="ped"/>
    <trip-attributes value="modes=&quot;public&quot;"/>
    <vehicle-class value="pedestrian"/>
    <fringe-factor value="1"/>
    <insertion-density value="10.0"/>
</configuration>
-->

<routes xmlns:xsi="http://www.w3.org/2001/XMLSchema-instance" xsi:noNamespaceSchemaLocation="http://sumo.dlr.de/xsd/routes_file.xsd">
    <vType id="ped_pedestrian" vClass="pedestrian"/>
    <person id="ped0" depart="0.00" type="ped_pedestrian">
        <personTrip from="561497026#3" to="-166104874#0" modes="public"/>
    </person>
    <person id="ped1" depart="7.87" type="ped_pedestrian">
        <personTrip from="1102164332" to="1028142401#1" modes="public"/>
    </person>
    <person id="ped2" depart="15.73" type="ped_pedestrian">
        <personTrip from="645165804#1" to="576201871" modes="public"/>
    </person>
    <person id="ped3" depart="23.60" type="ped_pedestrian">
        <personTrip from="749621680" to="-245238983" modes="public"/>
    </person>
    <person id="ped4" depart="31.47" type="ped_pedestrian">
        <personTrip from="222840564" to="-166104874#1" modes="public"/>
    </person>
    <person id="ped5" depart="39.33" type="ped_pedestrian">
        <personTrip from="1018918359" to="307431055" modes="public"/>
    </person>
    <person id="ped6" depart="47.20" type="ped_pedestrian">
        <personTrip from="-166104874#0" to="1010731335#1" modes="public"/>
    </person>
    <person id="ped7" depart="55.07" type="ped_pedestrian">
        <personTrip from="572003068#1" to="369827665#1" modes="public"/>
    </person>
    <person id="ped8" depart="62.93" type="ped_pedestrian">
        <personTrip from="1028142401#1" to="37935481#5" modes="public"/>
    </person>
    <person id="ped9" depart="70.80" type="ped_pedestrian">
        <personTrip from="697719296" to="-1010731335#1" modes="public"/>
    </person>
    <person id="ped10" depart="78.67" type="ped_pedestrian">
        <personTrip from="688086638" to="580395205#1" modes="public"/>
    </person>
    <person id="ped11" depart="86.53" type="ped_pedestrian">
        <personTrip from="166104869#1" to="-645165804#1" modes="public"/>
    </person>
    <person id="ped12" depart="94.40" type="ped_pedestrian">
        <personTrip from="878862905#1" to="156780851" modes="public"/>
    </person>
    <person id="ped13" depart="102.26" type="ped_pedestrian">
        <personTrip from="-245317915#0" to="-245317925#1" modes="public"/>
    </person>
    <person id="ped14" depart="110.13" type="ped_pedestrian">
        <personTrip from="711708398" to="37935914" modes="public"/>
    </person>
    <person id="ped15" depart="118.00" type="ped_pedestrian">
        <personTrip from="697719296" to="621030746#4" modes="public"/>
    </person>
    <person id="ped16" depart="125.86" type="ped_pedestrian">
        <personTrip from="361113855" to="878862911#2" modes="public"/>
    </person>
    <person id="ped17" depart="133.73" type="ped_pedestrian">
        <personTrip from="166104882" to="369829204#0" modes="public"/>
    </person>
    <person id="ped18" depart="141.60" type="ped_pedestrian">
        <personTrip from="711708391" to="4245637#1" modes="public"/>
    </person>
    <person id="ped19" depart="149.46" type="ped_pedestrian">
        <personTrip from="711708400#3" to="37935481#2" modes="public"/>
    </person>
    <person id="ped20" depart="157.33" type="ped_pedestrian">
        <personTrip from="580395207" to="-166104878#1" modes="public"/>
    </person>
    <person id="ped21" depart="165.20" type="ped_pedestrian">
        <personTrip from="1028145053#0" to="1175522814" modes="public"/>
    </person>
    <person id="ped22" depart="173.06" type="ped_pedestrian">
        <personTrip from="-22761597#0" to="1028145053#1" modes="public"/>
    </person>
    <person id="ped23" depart="180.93" type="ped_pedestrian">
        <personTrip from="-245317925#2" to="1119496410" modes="public"/>
    </person>
    <person id="ped24" depart="188.80" type="ped_pedestrian">
        <personTrip from="561497026#2" to="166104877" modes="public"/>
    </person>
    <person id="ped25" depart="196.66" type="ped_pedestrian">
        <personTrip from="166104878#1" to="1015988488#2" modes="public"/>
    </person>
    <person id="ped26" depart="204.53" type="ped_pedestrian">
        <personTrip from="1076611437#2" to="840378999" modes="public"/>
    </person>
    <person id="ped27" depart="212.40" type="ped_pedestrian">
        <personTrip from="572003068#1" to="4245534" modes="public"/>
    </person>
    <person id="ped28" depart="220.26" type="ped_pedestrian">
        <personTrip from="-678960768#1" to="621030746#4" modes="public"/>
    </person>
    <person id="ped29" depart="228.13" type="ped_pedestrian">
        <personTrip from="-665068147#0" to="166104882" modes="public"/>
    </person>
    <person id="ped30" depart="236.00" type="ped_pedestrian">
        <personTrip from="909949880#2" to="561497026#3" modes="public"/>
    </person>
    <person id="ped31" depart="243.86" type="ped_pedestrian">
        <personTrip from="37927947#1" to="576201873" modes="public"/>
    </person>
    <person id="ped32" depart="251.73" type="ped_pedestrian">
        <personTrip from="711708397#0" to="675172195" modes="public"/>
    </person>
    <person id="ped33" depart="259.60" type="ped_pedestrian">
        <personTrip from="1028145053#0" to="-166104874#2" modes="public"/>
    </person>
    <person id="ped34" depart="267.46" type="ped_pedestrian">
        <personTrip from="1192785998" to="1076611437#2" modes="public"/>
    </person>
    <person id="ped35" depart="275.33" type="ped_pedestrian">
        <personTrip from="1017667814" to="849616388" modes="public"/>
    </person>
    <person id="ped36" depart="283.19" type="ped_pedestrian">
        <personTrip from="743184219#1" to="1192785998" modes="public"/>
    </person>
    <person id="ped37" depart="291.06" type="ped_pedestrian">
        <personTrip from="572092552#2" to="166104889" modes="public"/>
    </person>
    <person id="ped38" depart="298.93" type="ped_pedestrian">
        <personTrip from="777923706#1" to="245317925#1" modes="public"/>
    </person>
    <person id="ped39" depart="306.79" type="ped_pedestrian">
        <personTrip from="1076611437#1" to="1074940676" modes="public"/>
    </person>
    <person id="ped40" depart="314.66" type="ped_pedestrian">
        <personTrip from="37927947#2" to="1076197607" modes="public"/>
    </person>
    <person id="ped41" depart="322.53" type="ped_pedestrian">
        <personTrip from="37935481#4" to="775437515#0" modes="public"/>
    </person>
    <person id="ped42" depart="330.39" type="ped_pedestrian">
        <personTrip from="167048050" to="1018918359" modes="public"/>
    </person>
    <person id="ped43" depart="338.26" type="ped_pedestrian">
        <personTrip from="909970046" to="32869234" modes="public"/>
    </person>
    <person id="ped44" depart="346.13" type="ped_pedestrian">
        <personTrip from="-245317915#0" to="-166104878#2" modes="public"/>
    </person>
    <person id="ped45" depart="353.99" type="ped_pedestrian">
        <personTrip from="-30260275" to="561497026#0" modes="public"/>
    </person>
    <person id="ped46" depart="361.86" type="ped_pedestrian">
        <personTrip from="675445995#1" to="222840564" modes="public"/>
    </person>
    <person id="ped47" depart="369.73" type="ped_pedestrian">
        <personTrip from="-166104888#1" to="166104887#0" modes="public"/>
    </person>
    <person id="ped48" depart="377.59" type="ped_pedestrian">
        <personTrip from="909967551" to="355084527" modes="public"/>
    </person>
    <person id="ped49" depart="385.46" type="ped_pedestrian">
        <personTrip from="878862911#2" to="711708400#3" modes="public"/>
    </person>
    <person id="ped50" depart="393.33" type="ped_pedestrian">
        <personTrip from="-1076611437#2" to="621030736" modes="public"/>
    </person>
    <person id="ped51" depart="401.19" type="ped_pedestrian">
        <personTrip from="576201872" to="361113856" modes="public"/>
    </person>
    <person id="ped52" depart="409.06" type="ped_pedestrian">
        <personTrip from="1076611437#2" to="561497026#4" modes="public"/>
    </person>
    <person id="ped53" depart="416.93" type="ped_pedestrian">
        <personTrip from="-355083414" to="22761597#1" modes="public"/>
    </person>
    <person id="ped54" depart="424.79" type="ped_pedestrian">
        <personTrip from="245317925#0" to="878862905#0" modes="public"/>
    </person>
    <person id="ped55" depart="432.66" type="ped_pedestrian">
        <personTrip from="743184219#1" to="1076611437#1" modes="public"/>
    </person>
    <person id="ped56" depart="440.53" type="ped_pedestrian">
        <personTrip from="307431054" to="-700820552" modes="public"/>
    </person>
    <person id="ped57" depart="448.39" type="ped_pedestrian">
        <personTrip from="775859608" to="735382958" modes="public"/>
    </person>
    <person id="ped58" depart="456.26" type="ped_pedestrian">
        <personTrip from="1192229717" to="561497026#3" modes="public"/>
    </person>
    <person id="ped59" depart="464.12" type="ped_pedestrian">
        <personTrip from="4245534" to="-645165804#0" modes="public"/>
    </person>
    <person id="ped60" depart="471.99" type="ped_pedestrian">
        <personTrip from="665068135#3" to="361113856" modes="public"/>
    </person>
    <person id="ped61" depart="479.86" type="ped_pedestrian">
        <personTrip from="675172196" to="361113853" modes="public"/>
    </person>
    <person id="ped62" depart="487.72" type="ped_pedestrian">
        <personTrip from="-1010731335#0" to="139819418" modes="public"/>
    </person>
    <person id="ped63" depart="495.59" type="ped_pedestrian">
        <personTrip from="-166104869#1" to="840378985" modes="public"/>
    </person>
    <person id="ped64" depart="503.46" type="ped_pedestrian">
        <personTrip from="749621669" to="711708392" modes="public"/>
    </person>
    <person id="ped65" depart="511.32" type="ped_pedestrian">
        <personTrip from="1192230684" to="-166104887#1" modes="public"/>
    </person>
    <person id="ped66" depart="519.19" type="ped_pedestrian">
        <personTrip from="749621669" to="850328351" modes="public"/>
    </person>
    <person id="ped67" depart="527.06" type="ped_pedestrian">
        <personTrip from="-245238968" to="295122031#3" modes="public"/>
    </person>
    <person id="ped68" depart="534.92" type="ped_pedestrian">
        <personTrip from="-166104889" to="665068135#3" modes="public"/>
    </person>
    <person id="ped69" depart="542.79" type="ped_pedestrian">
        <personTrip from="665068147#1" to="-4245637#0" modes="public"/>
    </person>
    <person id="ped70" depart="550.66" type="ped_pedestrian">
        <personTrip from="295122031#0" to="369827665#2" modes="public"/>
    </person>
    <person id="ped71" depart="558.52" type="ped_pedestrian">
        <personTrip from="1076611437#1" to="735382958" modes="public"/>
    </person>
    <person id="ped72" depart="566.39" type="ped_pedestrian">
        <personTrip from="222840564" to="1017667814" modes="public"/>
    </person>
    <person id="ped73" depart="574.26" type="ped_pedestrian">
        <personTrip from="361113856" to="621030746#4" modes="public"/>
    </person>
    <person id="ped74" depart="582.12" type="ped_pedestrian">
        <personTrip from="1015988488#0" to="1192785997" modes="public"/>
    </person>
    <person id="ped75" depart="589.99" type="ped_pedestrian">
        <personTrip from="909967551" to="572003068#1" modes="public"/>
    </person>
    <person id="ped76" depart="597.86" type="ped_pedestrian">
        <personTrip from="232516122" to="355083421" modes="public"/>
    </person>
    <person id="ped77" depart="605.72" type="ped_pedestrian">
        <personTrip from="-369829204#0" to="1028142401#2" modes="public"/>
    </person>
    <person id="ped78" depart="613.59" type="ped_pedestrian">
        <personTrip from="166104869#0" to="37935481#5" modes="public"/>
    </person>
    <person id="ped79" depart="621.46" type="ped_pedestrian">
        <personTrip from="1028145053#1" to="1028142401#1" modes="public"/>
    </person>
    <person id="ped80" depart="629.32" type="ped_pedestrian">
        <personTrip from="-222840545" to="561497026#1" modes="public"/>
    </person>
    <person id="ped81" depart="637.19" type="ped_pedestrian">
        <personTrip from="1028145053#0" to="775437516#2" modes="public"/>
    </person>
    <person id="ped82" depart="645.05" type="ped_pedestrian">
        <personTrip from="711708400#2" to="-222840545" modes="public"/>
    </person>
    <person id="ped83" depart="652.92" type="ped_pedestrian">
        <personTrip from="1074899098" to="576201869" modes="public"/>
    </person>
    <person id="ped84" depart="660.79" type="ped_pedestrian">
        <personTrip from="1017667815" to="-4245637#1" modes="public"/>
    </person>
    <person id="ped85" depart="668.65" type="ped_pedestrian">
        <personTrip from="840378999" to="37935481#0" modes="public"/>
    </person>
    <person id="ped86" depart="676.52" type="ped_pedestrian">
        <personTrip from="295122023" to="675445993#1" modes="public"/>
    </person>
    <person id="ped87" depart="684.39" type="ped_pedestrian">
        <personTrip from="697719296" to="-909967551" modes="public"/>
    </person>
    <person id="ped88" depart="692.25" type="ped_pedestrian">
        <personTrip from="-245317925#1" to="22761597#0" modes="public"/>
    </person>
    <person id="ped89" depart="700.12" type="ped_pedestrian">
        <personTrip from="22731331#1" to="292823137" modes="public"/>
    </person>
    <person id="ped90" depart="707.99" type="ped_pedestrian">
        <personTrip from="621030746#4" to="576201870#1" modes="public"/>
    </person>
    <person id="ped91" depart="715.85" type="ped_pedestrian">
        <personTrip from="878865705" to="-245317925#1" modes="public"/>
    </person>
    <person id="ped92" depart="723.72" type="ped_pedestrian">
        <personTrip from="167048240#0" to="166104869#0" modes="public"/>
    </person>
    <person id="ped93" depart="731.59" type="ped_pedestrian">
        <personTrip from="711708400#3" to="1074951509" modes="public"/>
    </person>
    <person id="ped94" depart="739.45" type="ped_pedestrian">
        <personTrip from="-909967551" to="245238968" modes="public"/>
    </person>
    <person id="ped95" depart="747.32" type="ped_pedestrian">
        <personTrip from="222840564" to="1119496410" modes="public"/>
    </person>
    <person id="ped96" depart="755.19" type="ped_pedestrian">
        <personTrip from="1074951509" to="807481127" modes="public"/>
    </person>
    <person id="ped97" depart="763.05" type="ped_pedestrian">
        <personTrip from="238197666" to="711708400#3" modes="public"/>
    </person>
    <person id="ped98" depart="770.92" type="ped_pedestrian">
        <personTrip from="369829204#0" to="-166104882" modes="public"/>
    </person>
    <person id="ped99" depart="778.79" type="ped_pedestrian">
        <personTrip from="909970046" to="711708395" modes="public"/>
    </person>
    <person id="ped100" depart="786.65" type="ped_pedestrian">
        <personTrip from="878862911#1" to="807487453" modes="public"/>
    </person>
    <person id="ped101" depart="794.52" type="ped_pedestrian">
        <personTrip from="711708398" to="-665068147#0" modes="public"/>
    </person>
    <person id="ped102" depart="802.39" type="ped_pedestrian">
        <personTrip from="295122031#3" to="1017667815" modes="public"/>
    </person>
    <person id="ped103" depart="810.25" type="ped_pedestrian">
        <personTrip from="167048240#0" to="-166104887#1" modes="public"/>
    </person>
    <person id="ped104" depart="818.12" type="ped_pedestrian">
        <personTrip from="166104882" to="878865705" modes="public"/>
    </person>
    <person id="ped105" depart="825.98" type="ped_pedestrian">
        <personTrip from="1076611437#1" to="675445993#1" modes="public"/>
    </person>
    <person id="ped106" depart="833.85" type="ped_pedestrian">
        <personTrip from="245317925#0" to="222840564" modes="public"/>
    </person>
    <person id="ped107" depart="841.72" type="ped_pedestrian">
        <personTrip from="878862905#1" to="909967551" modes="public"/>
    </person>
    <person id="ped108" depart="849.58" type="ped_pedestrian">
        <personTrip from="369829204#1" to="621030734#0" modes="public"/>
    </person>
    <person id="ped109" depart="857.45" type="ped_pedestrian">
        <personTrip from="-645165804#1" to="1192229717" modes="public"/>
    </person>
    <person id="ped110" depart="865.32" type="ped_pedestrian">
        <personTrip from="878862911#1" to="37935481#2" modes="public"/>
    </person>
    <person id="ped111" depart="873.18" type="ped_pedestrian">
        <personTrip from="369827665#0" to="665068127" modes="public"/>
    </person>
    <person id="ped112" depart="881.05" type="ped_pedestrian">
        <personTrip from="-166104887#1" to="37935481#4" modes="public"/>
    </person>
    <person id="ped113" depart="888.92" type="ped_pedestrian">
        <personTrip from="307431054" to="711708399#1" modes="public"/>
    </person>
    <person id="ped114" depart="896.78" type="ped_pedestrian">
        <personTrip from="-653017244" to="878862910" modes="public"/>
    </person>
    <person id="ped115" depart="904.65" type="ped_pedestrian">
        <personTrip from="-22761597#1" to="-711708394" modes="public"/>
    </person>
    <person id="ped116" depart="912.52" type="ped_pedestrian">
        <personTrip from="37935481#7" to="576201870#1" modes="public"/>
    </person>
    <person id="ped117" depart="920.38" type="ped_pedestrian">
        <personTrip from="1065669332" to="-355084529" modes="public"/>
    </person>
    <person id="ped118" depart="928.25" type="ped_pedestrian">
        <personTrip from="749621680" to="1074940676" modes="public"/>
    </person>
    <person id="ped119" depart="936.12" type="ped_pedestrian">
        <personTrip from="37935481#7" to="4245637#1" modes="public"/>
    </person>
    <person id="ped120" depart="943.98" type="ped_pedestrian">
        <personTrip from="222840545" to="37935481#4" modes="public"/>
    </person>
    <person id="ped121" depart="951.85" type="ped_pedestrian">
        <personTrip from="355083423" to="840378999" modes="public"/>
    </person>
    <person id="ped122" depart="959.72" type="ped_pedestrian">
        <personTrip from="1015988488#1" to="621030732" modes="public"/>
    </person>
    <person id="ped123" depart="967.58" type="ped_pedestrian">
        <personTrip from="1074899098" to="166104889" modes="public"/>
    </person>
    <person id="ped124" depart="975.45" type="ped_pedestrian">
        <personTrip from="576201870#0" to="1192229717" modes="public"/>
    </person>
    <person id="ped125" depart="983.32" type="ped_pedestrian">
        <personTrip from="1192785998" to="665068135#0" modes="public"/>
    </person>
    <person id="ped126" depart="991.18" type="ped_pedestrian">
        <personTrip from="-222840545" to="245317925#1" modes="public"/>
    </person>
    <person id="ped127" depart="999.05" type="ped_pedestrian">
        <personTrip from="909970046" to="909967551" modes="public"/>
    </person>
    <person id="ped128" depart="1006.91" type="ped_pedestrian">
        <personTrip from="-222840545" to="1017667814" modes="public"/>
    </person>
    <person id="ped129" depart="1014.78" type="ped_pedestrian">
        <personTrip from="1076611437#1" to="840378986" modes="public"/>
    </person>
    <person id="ped130" depart="1022.65" type="ped_pedestrian">
        <personTrip from="749621678" to="749621669" modes="public"/>
    </person>
    <person id="ped131" depart="1030.51" type="ped_pedestrian">
        <personTrip from="166104878#0" to="-653017244" modes="public"/>
    </person>
    <person id="ped132" depart="1038.38" type="ped_pedestrian">
        <personTrip from="711708395" to="580395207" modes="public"/>
    </person>
    <person id="ped133" depart="1046.25" type="ped_pedestrian">
        <personTrip from="4245572" to="909949880#2" modes="public"/>
    </person>
    <person id="ped134" depart="1054.11" type="ped_pedestrian">
        <personTrip from="572092552#2" to="-1076611437#1" modes="public"/>
    </person>
    <person id="ped135" depart="1061.98" type="ped_pedestrian">
        <personTrip from="711708389#1" to="1192229717" modes="public"/>
    </person>
    <person id="ped136" depart="1069.85" type="ped_pedestrian">
        <personTrip from="576201865" to="849516786" modes="public"/>
    </person>
    <person id="ped137" depart="1077.71" type="ped_pedestrian">
        <personTrip from="-456482267" to="-355084526" modes="public"/>
    </person>
    <person id="ped138" depart="1085.58" type="ped_pedestrian">
        <personTrip from="-30260275" to="369829204#0" modes="public"/>
    </person>
    <person id="ped139" depart="1093.45" type="ped_pedestrian">
        <personTrip from="1077804815" to="37935914" modes="public"/>
    </person>
    <person id="ped140" depart="1101.31" type="ped_pedestrian">
        <personTrip from="621030734#0" to="1015988488#1" modes="public"/>
    </person>
    <person id="ped141" depart="1109.18" type="ped_pedestrian">
        <personTrip from="561497026#2" to="1076611437#1" modes="public"/>
    </person>
    <person id="ped142" depart="1117.05" type="ped_pedestrian">
        <personTrip from="30260120" to="775437516#2" modes="public"/>
    </person>
    <person id="ped143" depart="1124.91" type="ped_pedestrian">
        <personTrip from="711708397#1" to="-245317915#0" modes="public"/>
    </person>
    <person id="ped144" depart="1132.78" type="ped_pedestrian">
        <personTrip from="22731331#1" to="1119496410" modes="public"/>
    </person>
    <person id="ped145" depart="1140.65" type="ped_pedestrian">
        <personTrip from="-1010731335#1" to="667607224" modes="public"/>
    </person>
    <person id="ped146" depart="1148.51" type="ped_pedestrian">
        <personTrip from="561497026#3" to="1076197607" modes="public"/>
    </person>
    <person id="ped147" depart="1156.38" type="ped_pedestrian">
        <personTrip from="654885026" to="369829204#0" modes="public"/>
    </person>
    <person id="ped148" depart="1164.25" type="ped_pedestrian">
        <personTrip from="22738847" to="-1076611437#1" modes="public"/>
    </person>
    <person id="ped149" depart="1172.11" type="ped_pedestrian">
        <personTrip from="-222840564" to="749621678" modes="public"/>
    </person>
    <person id="ped150" depart="1179.98" type="ped_pedestrian">
        <personTrip from="775437516#2" to="369827665#1" modes="public"/>
    </person>
    <person id="ped151" depart="1187.84" type="ped_pedestrian">
        <personTrip from="711708395" to="37935481#3" modes="public"/>
    </person>
    <person id="ped152" depart="1195.71" type="ped_pedestrian">
        <personTrip from="-580395205#1" to="-4245637#0" modes="public"/>
    </person>
    <person id="ped153" depart="1203.58" type="ped_pedestrian">
        <personTrip from="1192230684" to="775437515#0" modes="public"/>
    </person>
    <person id="ped154" depart="1211.44" type="ped_pedestrian">
        <personTrip from="675445997" to="711708400#3" modes="public"/>
    </person>
    <person id="ped155" depart="1219.31" type="ped_pedestrian">
        <personTrip from="775437515#0" to="1017667814" modes="public"/>
    </person>
    <person id="ped156" depart="1227.18" type="ped_pedestrian">
        <personTrip from="1074951509" to="-245317925#2" modes="public"/>
    </person>
    <person id="ped157" depart="1235.04" type="ped_pedestrian">
        <personTrip from="675445993#0" to="749621679#0" modes="public"/>
    </person>
    <person id="ped158" depart="1242.91" type="ped_pedestrian">
        <personTrip from="167048240#1" to="456482267" modes="public"/>
    </person>
    <person id="ped159" depart="1250.78" type="ped_pedestrian">
        <personTrip from="-645165804#1" to="840378985" modes="public"/>
    </person>
    <person id="ped160" depart="1258.64" type="ped_pedestrian">
        <personTrip from="722094931#1" to="878862911#3" modes="public"/>
    </person>
    <person id="ped161" depart="1266.51" type="ped_pedestrian">
        <personTrip from="708396592#0" to="749621678" modes="public"/>
    </person>
    <person id="ped162" depart="1274.38" type="ped_pedestrian">
        <personTrip from="-166104874#0" to="645165804#1" modes="public"/>
    </person>
    <person id="ped163" depart="1282.24" type="ped_pedestrian">
        <personTrip from="149828221#1" to="840378986" modes="public"/>
    </person>
    <person id="ped164" depart="1290.11" type="ped_pedestrian">
        <personTrip from="678960768#1" to="722094931#1" modes="public"/>
    </person>
    <person id="ped165" depart="1297.98" type="ped_pedestrian">
        <personTrip from="708396592#0" to="1076611437#2" modes="public"/>
    </person>
    <person id="ped166" depart="1305.84" type="ped_pedestrian">
        <personTrip from="675445995#0" to="-30260275" modes="public"/>
    </person>
    <person id="ped167" depart="1313.71" type="ped_pedestrian">
        <personTrip from="735382958" to="711708400#2" modes="public"/>
    </person>
    <person id="ped168" depart="1321.58" type="ped_pedestrian">
        <personTrip from="1028142401#1" to="708396592#1" modes="public"/>
    </person>
    <person id="ped169" depart="1329.44" type="ped_pedestrian">
        <personTrip from="245317925#2" to="1192230683" modes="public"/>
    </person>
    <person id="ped170" depart="1337.31" type="ped_pedestrian">
        <personTrip from="675445997" to="1028145053#0" modes="public"/>
    </person>
    <person id="ped171" depart="1345.18" type="ped_pedestrian">
        <personTrip from="-166104874#0" to="-909967551" modes="public"/>
    </person>
    <person id="ped172" depart="1353.04" type="ped_pedestrian">
        <personTrip from="149828221#0" to="722094931#1" modes="public"/>
    </person>
    <person id="ped173" depart="1360.91" type="ped_pedestrian">
        <personTrip from="878862911#1" to="1119496410" modes="public"/>
    </person>
    <person id="ped174" depart="1368.77" type="ped_pedestrian">
        <personTrip from="561497026#4" to="167048050" modes="public"/>
    </person>
    <person id="ped175" depart="1376.64" type="ped_pedestrian">
        <personTrip from="878865704" to="361113855" modes="public"/>
    </person>
    <person id="ped176" depart="1384.51" type="ped_pedestrian">
        <personTrip from="849516786" to="-355084526" modes="public"/>
    </person>
    <person id="ped177" depart="1392.37" type="ped_pedestrian">
        <personTrip from="878862911#2" to="-700820552" modes="public"/>
    </person>
    <person id="ped178" depart="1400.24" type="ped_pedestrian">
        <personTrip from="878862910" to="1076611437#1" modes="public"/>
    </person>
    <person id="ped179" depart="1408.11" type="ped_pedestrian">
        <personTrip from="-30260275" to="22761597#1" modes="public"/>
    </person>
    <person id="ped180" depart="1415.97" type="ped_pedestrian">
        <personTrip from="621030746#4" to="1192785998" modes="public"/>
    </person>
    <person id="ped181" depart="1423.84" type="ped_pedestrian">
        <personTrip from="37935914" to="355083414" modes="public"/>
    </person>
    <person id="ped182" depart="1431.71" type="ped_pedestrian">
        <personTrip from="166104887#1" to="37935481#1" modes="public"/>
    </person>
    <person id="ped183" depart="1439.57" type="ped_pedestrian">
        <personTrip from="1075172504" to="621030725#0" modes="public"/>
    </person>
    <person id="ped184" depart="1447.44" type="ped_pedestrian">
        <personTrip from="-1010731335#0" to="807487453" modes="public"/>
    </person>
    <person id="ped185" depart="1455.31" type="ped_pedestrian">
        <personTrip from="361113856" to="621030734#0" modes="public"/>
    </person>
    <person id="ped186" depart="1463.17" type="ped_pedestrian">
        <personTrip from="654885026" to="576201870#0" modes="public"/>
    </person>
    <person id="ped187" depart="1471.04" type="ped_pedestrian">
        <personTrip from="166104877" to="-166104889" modes="public"/>
    </person>
    <person id="ped188" depart="1478.91" type="ped_pedestrian">
        <personTrip from="576201865" to="149828221#1" modes="public"/>
    </person>
    <person id="ped189" depart="1486.77" type="ped_pedestrian">
        <personTrip from="1192785998" to="711708398" modes="public"/>
    </person>
    <person id="ped190" depart="1494.64" type="ped_pedestrian">
        <personTrip from="621030734#0" to="1192229718" modes="public"/>
    </person>
    <person id="ped191" depart="1502.51" type="ped_pedestrian">
        <personTrip from="1192230684" to="195513140#0" modes="public"/>
    </person>
    <person id="ped192" depart="1510.37" type="ped_pedestrian">
        <personTrip from="167048240#0" to="1192229716" modes="public"/>
    </person>
    <person id="ped193" depart="1518.24" type="ped_pedestrian">
        <personTrip from="-4245637#0" to="222840564" modes="public"/>
    </person>
    <person id="ped194" depart="1526.11" type="ped_pedestrian">
        <personTrip from="849616388" to="576201871" modes="public"/>
    </person>