<?xml version="1.0" encoding="UTF-8"?>

<!-- generated on 2024-03-25 16:01:47.347488 by osmWebWizard.py v1_19_0+0000-baa66a0f364
<configuration>
    <net-file value="C:\Users\Gabe Piano\Sumo\2024-03-25-16-01-18\osm.net.xml.gz"/>
    <output-trip-file value="C:\Users\Gabe Piano\Sumo\2024-03-25-16-01-18\osm.motorcycle.trips.xml"/>
    <route-file value="C:\Users\Gabe Piano\Sumo\2024-03-25-16-01-18\osm.motorcycle.rou.xml"/>
    <prefix value="motorcycle"/>
    <trip-attributes value="departLane=&quot;best&quot;"/>
    <fringe-start-attributes value="departSpeed=&quot;max&quot;"/>
    <vehicle-class value="motorcycle"/>
    <fringe-factor value="2"/>
    <vclass value="motorcycle"/>
    <via-edge-types value="highway.motorway,highway.motorway_link,highway.trunk_link,highway.primary_link,highway.secondary_link,highway.tertiary_link"/>
    <max-distance value="1200.0"/>
    <remove-loops value="True"/>
    <validate value="True"/>
    <insertion-density value="4.0"/>
</configuration>
-->

<!-- generated on 2024-03-25 16:01:47 by Eclipse SUMO duarouter Version 1.19.0
<configuration xmlns:xsi="http://www.w3.org/2001/XMLSchema-instance" xsi:noNamespaceSchemaLocation="http://sumo.dlr.de/xsd/duarouterConfiguration.xsd">

    <input>
        <net-file value="C:\Users\Gabe Piano\Sumo\2024-03-25-16-01-18\osm.net.xml.gz"/>
        <route-files value="C:\Users\Gabe Piano\Sumo\2024-03-25-16-01-18\osm.motorcycle.trips.xml"/>
    </input>

    <output>
        <output-file value="C:\Users\Gabe Piano\Sumo\2024-03-25-16-01-18\osm.motorcycle.trips.xml.tmp"/>
        <alternatives-output value="NUL"/>
        <write-trips value="true"/>
    </output>

    <processing>
        <remove-loops value="true"/>
    </processing>

    <time>
        <begin value="0.0"/>
        <end value="3600.0"/>
    </time>

    <report>
        <no-warnings value="true"/>
        <ignore-errors value="true"/>
        <no-step-log value="true"/>
    </report>

</configuration>
-->

<routes xmlns:xsi="http://www.w3.org/2001/XMLSchema-instance" xsi:noNamespaceSchemaLocation="http://sumo.dlr.de/xsd/routes_file.xsd">
    <vType id="motorcycle_motorcycle" vClass="motorcycle"/>
    <trip id="motorcycle1" type="motorcycle_motorcycle" depart="18.78" departLane="best" departSpeed="max" from="224042473" to="156782727#1"/>
    <trip id="motorcycle4" type="motorcycle_motorcycle" depart="75.10" departLane="best" from="245317925#0" to="-224039660#0"/>
    <trip id="motorcycle7" type="motorcycle_motorcycle" depart="131.43" departLane="best" from="657272437" to="156782727#0"/>
    <trip id="motorcycle8" type="motorcycle_motorcycle" depart="150.21" departLane="best" departSpeed="max" from="654885026" to="621030741#1"/>
    <trip id="motorcycle10" type="motorcycle_motorcycle" depart="187.76" departLane="best" from="840378999" to="22761597#0"/>
    <trip id="motorcycle13" type="motorcycle_motorcycle" depart="244.09" departLane="best" departSpeed="max" from="22738859" to="423774438#0"/>
    <trip id="motorcycle14" type="motorcycle_motorcycle" depart="262.87" departLane="best" from="667228839" to="4249937"/>
    <trip id="motorcycle15" type="motorcycle_motorcycle" depart="281.64" departLane="best" from="644875492#0" to="-224042472#0"/>
    <trip id="motorcycle21" type="motorcycle_motorcycle" depart="394.30" departLane="best" from="576201839" to="4249937"/>
    <trip id="motorcycle25" type="motorcycle_motorcycle" depart="469.40" departLane="best" departSpeed="max" from="224039649" to="224039660#0"/>
    <trip id="motorcycle32" type="motorcycle_motorcycle" depart="600.84" departLane="best" from="1074348061#2" to="-224042474"/>
    <trip id="motorcycle34" type="motorcycle_motorcycle" depart="638.39" departLane="best" from="22761597#0" to="156782727#1"/>
    <trip id="motorcycle38" type="motorcycle_motorcycle" depart="713.49" departLane="best" departSpeed="max" from="632555185" to="40122556#1"/>
    <trip id="motorcycle41" type="motorcycle_motorcycle" depart="769.82" departLane="best" from="700820554#2" to="667228839"/>
    <trip id="motorcycle42" type="motorcycle_motorcycle" depart="788.60" departLane="best" from="644875520" to="40122556#1"/>
    <trip id="motorcycle47" type="motorcycle_motorcycle" depart="882.48" departLane="best" departSpeed="max" from="224057408#0" to="-224042473"/>
    <trip id="motorcycle54" type="motorcycle_motorcycle" depart="1013.91" departLane="best" from="245317925#1" to="156782727#1"/>
    <trip id="motorcycle55" type="motorcycle_motorcycle" depart="1032.69" departLane="best" from="1092898261#2" to="22738849#0"/>
    <trip id="motorcycle58" type="motorcycle_motorcycle" depart="1089.01" departLane="best" from="22738847" to="4245637#1"/>
    <trip id="motorcycle59" type="motorcycle_motorcycle" depart="1107.79" departLane="best" departSpeed="max" from="224039649" to="156782727#1"/>
    <trip id="motorcycle69" type="motorcycle_motorcycle" depart="1295.55" departLane="best" from="22761597#0" to="22761597#0"/>
    <trip id="motorcycle72" type="motorcycle_motorcycle" depart="1351.88" departLane="best" from="245317928" to="665068147#1"/>
    <trip id="motorcycle73" type="motorcycle_motorcycle" depart="1370.65" departLane="best" from="423774438#0" to="-224042473"/>
    <trip id="motorcycle74" type="motorcycle_motorcycle" depart="1389.43" departLane="best" departSpeed="max" from="914977491#0" to="657272437"/>
    <trip id="motorcycle77" type="motorcycle_motorcycle" depart="1445.76" departLane="best" departSpeed="max" from="35356373" to="156782727#1"/>
    <trip id="motorcycle78" type="motorcycle_motorcycle" depart="1464.54" departLane="best" from="22761597#0" to="-224042473"/>
    <trip id="motorcycle79" type="motorcycle_motorcycle" depart="1483.31" departLane="best" departSpeed="max" from="22738859" to="840378998"/>
    <trip id="motorcycle81" type="motorcycle_motorcycle" depart="1520.86" departLane="best" from="840378999" to="840378999"/>
    <trip id="motorcycle83" type="motorcycle_motorcycle" depart="1558.42" departLane="best" departSpeed="max" from="909967551" to="4245637#0"/>
    <trip id="motorcycle92" type="motorcycle_motorcycle" depart="1727.40" departLane="best" from="245317925#0" to="4245637#0"/>
    <trip id="motorcycle98" type="motorcycle_motorcycle" depart="1840.06" departLane="best" departSpeed="max" from="914977491#0" to="840378999"/>
    <trip id="motorcycle103" type="motorcycle_motorcycle" depart="1933.94" departLane="best" from="576201844" to="156782727#0"/>
    <trip id="motorcycle109" type="motorcycle_motorcycle" depart="2046.59" departLane="best" from="644875492#1" to="156782727#0"/>
    <trip id="motorcycle116" type="motorcycle_motorcycle" depart="2178.03" departLane="best" from="644875507#1" to="423774438#0"/>
    <trip id="motorcycle117" type="motorcycle_motorcycle" depart="2196.80" departLane="best" from="245317925#1" to="-224039649"/>
    <trip id="motorcycle119" type="motorcycle_motorcycle" depart="2234.36" departLane="best" from="700820554#2" to="40122556#1"/>
    <trip id="motorcycle120" type="motorcycle_motorcycle" depart="2253.13" departLane="best" from="667228839" to="4245637#0"/>
    <trip id="motorcycle123" type="motorcycle_motorcycle" depart="2309.46" departLane="best" departSpeed="max" from="654885026" to="665068147#1"/>
    <trip id="motorcycle124" type="motorcycle_motorcycle" depart="2328.24" departLane="best" from="700820554#1" to="156782727#0"/>
    <trip id="motorcycle127" type="motorcycle_motorcycle" depart="2384.56" departLane="best" from="657272437" to="667228840#0"/>
    <trip id="motorcycle129" type="motorcycle_motorcycle" depart="2422.12" departLane="best" departSpeed="max" from="654885026" to="665068147#1"/>
    <trip id="motorcycle130" type="motorcycle_motorcycle" depart="2440.89" departLane="best" from="657272437" to="-224042474"/>
    <trip id="motorcycle132" type="motorcycle_motorcycle" depart="2478.44" departLane="best" from="678960768#1" to="665068147#1"/>
    <trip id="motorcycle133" type="motorcycle_motorcycle" depart="2497.22" departLane="best" departSpeed="max" from="224039649" to="644875524"/>
    <trip id="motorcycle135" type="motorcycle_motorcycle" depart="2534.77" departLane="best" from="22731331#1" to="665068147#1"/>
    <trip id="motorcycle139" type="motorcycle_motorcycle" depart="2609.88" departLane="best" departSpeed="max" from="909967551" to="1076611437#1"/>
    <trip id="motorcycle140" type="motorcycle_motorcycle" depart="2628.65" departLane="best" departSpeed="max" from="909967551" to="-224042474"/>
    <trip id="motorcycle141" type="motorcycle_motorcycle" depart="2647.43" departLane="best" from="644875495" to="22738849#0"/>
    <trip id="motorcycle143" type="motorcycle_motorcycle" depart="2684.98" departLane="best" departSpeed="max" from="22738859" to="423798481"/>
    <trip id="motorcycle153" type="motorcycle_motorcycle" depart="2872.74" departLane="best" from="700820554#1" to="4249937"/>
    <trip id="motorcycle155" type="motorcycle_motorcycle" depart="2910.29" departLane="best" from="245317925#1" to="4245637#0"/>
    <trip id="motorcycle157" type="motorcycle_motorcycle" depart="2947.85" departLane="best" from="245317925#2" to="156782727#1"/>
    <trip id="motorcycle161" type="motorcycle_motorcycle" depart="3022.95" departLane="best" from="156782224" to="-224039649"/>
    <trip id="motorcycle162" type="motorcycle_motorcycle" depart="3041.73" departLane="best" from="224039663" to="35356690"/>
    <trip id="motorcycle163" type="motorcycle_motorcycle" depart="3060.50" departLane="best" from="667228840#1" to="-224042474"/>
    <trip id="motorcycle165" type="motorcycle_motorcycle" depart="3098.06" departLane="best" from="576201844" to="156782727#0"/>
    <trip id="motorcycle166" type="motorcycle_motorcycle" depart="3116.83" departLane="best" from="644875508" to="644875507#0"/>
    <trip id="motorcycle168" type="motorcycle_motorcycle" depart="3154.38" departLane="best" departSpeed="max" from="156420784" to="711708392"/>
    <trip id="motorcycle169" type="motorcycle_motorcycle" depart="3173.16" departLane="best" from="224039663" to="665068136#1"/>
    <trip id="motorcycle171" type="motorcycle_motorcycle" depart="3210.71" departLane="best" from="700820554#0" to="4249937"/>
    <trip id="motorcycle172" type="motorcycle_motorcycle" depart="3229.49" departLane="best" from="667228839" to="40122556#1"/>
    <trip id="motorcycle174" type="motorcycle_motorcycle" depart="3267.04" departLane="best" departSpeed="max" from="35356373" to="-224042472#0"/>
    <trip id="motorcycle176" type="motorcycle_motorcycle" depart="3304.59" departLane="best" departSpeed="max" from="4914784#0" to="224065172"/>
    <trip id="motorcycle180" type="motorcycle_motorcycle" depart="3379.70" departLane="best" from="644875492#0" to="-224042473"/>
    <trip id="motorcycle181" type="motorcycle_motorcycle" depart="3398.47" departLane="best" from="245238968" to="40122556#1"/>
    <trip id="motorcycle182" type="motorcycle_motorcycle" depart="3417.25" departLane="best" from="245317925#0" to="156782727#0"/>
    <trip id="motorcycle184" type="motorcycle_motorcycle" depart="3454.80" departLane="best" departSpeed="max" from="22738859" to="156782727#0"/>
    <trip id="motorcycle189" type="motorcycle_motorcycle" depart="3548.68" departLane="best" departSpeed="max" from="224039649" to="156782727#1"/>
    <trip id="motorcycle190" type="motorcycle_motorcycle" depart="3567.46" departLane="best" from="245317925#2" to="-224039660#0"/>
    <trip id="motorcycle191" type="motorcycle_motorcycle" depart="3586.23" departLane="best" from="245238968" to="1074926268"/>
</routes>
