<?xml version="1.0" encoding="UTF-8"?>

<!-- generated on 2024-03-25 16:01:47.941774 by osmWebWizard.py v1_19_0+0000-baa66a0f364
<configuration>
    <net-file value="C:\Users\Gabe Piano\Sumo\2024-03-25-16-01-18\osm.net.xml.gz"/>
    <output-trip-file value="C:\Users\Gabe Piano\Sumo\2024-03-25-16-01-18\osm.passenger.trips.xml"/>
    <route-file value="C:\Users\Gabe Piano\Sumo\2024-03-25-16-01-18\osm.passenger.rou.xml"/>
    <prefix value="veh"/>
    <trip-attributes value="departLane=&quot;best&quot;"/>
    <fringe-start-attributes value="departSpeed=&quot;max&quot;"/>
    <vehicle-class value="passenger"/>
    <lanes value="True"/>
    <fringe-factor value="5"/>
    <allow-fringe.min-length value="1000.0"/>
    <via-edge-types value="highway.motorway,highway.motorway_link,highway.trunk_link,highway.primary_link,highway.secondary_link,highway.tertiary_link"/>
    <min-distance value="300.0"/>
    <min-distance.fringe value="10.0"/>
    <remove-loops value="True"/>
    <validate value="True"/>
    <insertion-density value="12.0"/>
</configuration>
-->

<!-- generated on 2024-03-25 16:01:47 by Eclipse SUMO duarouter Version 1.19.0
<configuration xmlns:xsi="http://www.w3.org/2001/XMLSchema-instance" xsi:noNamespaceSchemaLocation="http://sumo.dlr.de/xsd/duarouterConfiguration.xsd">

    <input>
        <net-file value="C:\Users\Gabe Piano\Sumo\2024-03-25-16-01-18\osm.net.xml.gz"/>
        <route-files value="C:\Users\Gabe Piano\Sumo\2024-03-25-16-01-18\osm.passenger.trips.xml"/>
    </input>

    <output>
        <output-file value="C:\Users\Gabe Piano\Sumo\2024-03-25-16-01-18\osm.passenger.trips.xml.tmp"/>
        <alternatives-output value="NUL"/>
        <write-trips value="true"/>
    </output>

    <processing>
        <remove-loops value="true"/>
    </processing>

    <time>
        <begin value="0.0"/>
        <end value="3600.0"/>
    </time>

    <report>
        <no-warnings value="true"/>
        <ignore-errors value="true"/>
        <no-step-log value="true"/>
    </report>

</configuration>
-->

<routes xmlns:xsi="http://www.w3.org/2001/XMLSchema-instance" xsi:noNamespaceSchemaLocation="http://sumo.dlr.de/xsd/routes_file.xsd">
    <vType id="veh_passenger" vClass="passenger"/>
    <trip id="veh0" type="veh_passenger" depart="0.00" departLane="best" from="644875507#1" to="-224042473"/>
    <trip id="veh1" type="veh_passenger" depart="6.44" departLane="best" from="245238968" to="22761597#1"/>
    <trip id="veh3" type="veh_passenger" depart="19.32" departLane="best" from="840378998" to="1076611437#1"/>
    <trip id="veh7" type="veh_passenger" depart="45.09" departLane="best" from="644875508" to="4245637#1"/>
    <trip id="veh8" type="veh_passenger" depart="51.53" departLane="best" from="22738849#1" to="456482267"/>
    <trip id="veh9" type="veh_passenger" depart="57.97" departLane="best" from="678960768#1" to="-224039649"/>
    <trip id="veh11" type="veh_passenger" depart="70.86" departLane="best" departSpeed="max" from="909967551" to="245317928"/>
    <trip id="veh12" type="veh_passenger" depart="77.30" departLane="best" from="700820554#2" to="456482267"/>
    <trip id="veh13" type="veh_passenger" depart="83.74" departLane="best" from="678960768#1" to="644875507#0"/>
    <trip id="veh14" type="veh_passenger" depart="90.18" departLane="best" from="355084527" to="4249937"/>
    <trip id="veh16" type="veh_passenger" depart="103.07" departLane="best" from="711708392" to="456482267"/>
    <trip id="veh19" type="veh_passenger" depart="122.39" departLane="best" from="644875507#1" to="245317933#1"/>
    <trip id="veh20" type="veh_passenger" depart="128.83" departLane="best" departSpeed="max" from="35356373" to="22761597#1"/>
    <trip id="veh22" type="veh_passenger" depart="141.71" departLane="best" from="644875508" to="456482267"/>
    <trip id="veh23" type="veh_passenger" depart="148.16" departLane="best" departSpeed="max" from="224057408#0" to="644875507#0"/>
    <trip id="veh25" type="veh_passenger" depart="161.04" departLane="best" from="700820554#1" to="644875524"/>
    <trip id="veh28" type="veh_passenger" depart="180.36" departLane="best" from="22738849#0" to="711708392"/>
    <trip id="veh31" type="veh_passenger" depart="199.69" departLane="best" departSpeed="max" from="909967551" to="40122556#1"/>
    <trip id="veh32" type="veh_passenger" depart="206.13" departLane="best" departSpeed="max" from="632555185" to="22761597#1"/>
    <trip id="veh34" type="veh_passenger" depart="219.01" departLane="best" from="369829204#0" to="22761597#1"/>
    <trip id="veh35" type="veh_passenger" depart="225.45" departLane="best" departSpeed="max" from="914977491#0" to="4245637#1"/>
    <trip id="veh39" type="veh_passenger" depart="251.22" departLane="best" departSpeed="max" from="914977491#0" to="4245637#1"/>
    <trip id="veh40" type="veh_passenger" depart="257.66" departLane="best" departSpeed="max" from="909967551" to="667228840#0"/>
    <trip id="veh45" type="veh_passenger" depart="289.87" departLane="best" from="423774438#0" to="711708392"/>
    <trip id="veh48" type="veh_passenger" depart="309.20" departLane="best" from="840378999" to="667228840#1"/>
    <trip id="veh55" type="veh_passenger" depart="354.29" departLane="best" from="711708395" to="665068147#1"/>
    <trip id="veh57" type="veh_passenger" depart="367.17" departLane="best" from="711708395" to="711708392"/>
    <trip id="veh59" type="veh_passenger" depart="380.05" departLane="best" from="369829204#1" to="22761597#1"/>
    <trip id="veh60" type="veh_passenger" depart="386.49" departLane="best" from="621030728" to="644875507#0"/>
    <trip id="veh61" type="veh_passenger" depart="392.94" departLane="best" from="22738847" to="245317925#1"/>
    <trip id="veh64" type="veh_passenger" depart="412.26" departLane="best" from="156782224" to="22761597#1"/>
    <trip id="veh65" type="veh_passenger" depart="418.70" departLane="best" from="245317930" to="456482267"/>
    <trip id="veh66" type="veh_passenger" depart="425.14" departLane="best" departSpeed="max" from="22738859" to="22761597#1"/>
    <trip id="veh70" type="veh_passenger" depart="450.91" departLane="best" departSpeed="max" from="22738859" to="621030741#1"/>
    <trip id="veh72" type="veh_passenger" depart="463.79" departLane="best" departSpeed="max" from="909967551" to="456482267"/>
    <trip id="veh73" type="veh_passenger" depart="470.23" departLane="best" from="423798481" to="645165804#1"/>
    <trip id="veh74" type="veh_passenger" depart="476.68" departLane="best" from="678960768#1" to="22761597#0"/>
    <trip id="veh76" type="veh_passenger" depart="489.56" departLane="best" from="369829204#1" to="423774438#0"/>
    <trip id="veh78" type="veh_passenger" depart="502.44" departLane="best" departSpeed="max" from="914977491#0" to="1076611437#2"/>
    <trip id="veh79" type="veh_passenger" depart="508.88" departLane="best" from="369829204#0" to="245317928"/>
    <trip id="veh81" type="veh_passenger" depart="521.77" departLane="best" from="22731331#1" to="40122556#1"/>
    <trip id="veh82" type="veh_passenger" depart="528.21" departLane="best" from="369829204#1" to="245317923"/>
    <trip id="veh85" type="veh_passenger" depart="547.53" departLane="best" departSpeed="max" from="914977491#0" to="665068147#1"/>
    <trip id="veh87" type="veh_passenger" depart="560.42" departLane="best" departSpeed="max" from="4245528" to="22761597#1"/>
    <trip id="veh89" type="veh_passenger" depart="573.30" departLane="best" from="355084527" to="840378998"/>
    <trip id="veh92" type="veh_passenger" depart="592.62" departLane="best" departSpeed="max" from="909967551" to="840378999"/>
    <trip id="veh95" type="veh_passenger" depart="611.95" departLane="best" departSpeed="max" from="909967551" to="456482267"/>
    <trip id="veh96" type="veh_passenger" depart="618.39" departLane="best" from="621030728" to="644875507#1"/>
    <trip id="veh101" type="veh_passenger" depart="650.60" departLane="best" departSpeed="max" from="22738859" to="156782727#1"/>
    <trip id="veh102" type="veh_passenger" depart="657.04" departLane="best" from="369829204#1" to="456482267"/>
    <trip id="veh104" type="veh_passenger" depart="669.92" departLane="best" from="22738847" to="644875492#1"/>
    <trip id="veh107" type="veh_passenger" depart="689.25" departLane="best" from="245317925#2" to="644875508"/>
    <trip id="veh108" type="veh_passenger" depart="695.69" departLane="best" departSpeed="max" from="914977491#0" to="840378999"/>
    <trip id="veh114" type="veh_passenger" depart="734.34" departLane="best" from="644875495" to="840378998"/>
    <trip id="veh115" type="veh_passenger" depart="740.78" departLane="best" from="678960768#1" to="245317925#0"/>
    <trip id="veh116" type="veh_passenger" depart="747.22" departLane="best" departSpeed="max" from="224039649" to="156782727#0"/>
    <trip id="veh118" type="veh_passenger" depart="760.11" departLane="best" departSpeed="max" from="654885026" to="22761597#1"/>
    <trip id="veh121" type="veh_passenger" depart="779.43" departLane="best" from="369829204#1" to="245317923"/>
    <trip id="veh123" type="veh_passenger" depart="792.31" departLane="best" from="644875507#1" to="22761597#1"/>
    <trip id="veh125" type="veh_passenger" depart="805.20" departLane="best" from="369829204#1" to="-224039649"/>
    <trip id="veh127" type="veh_passenger" depart="818.08" departLane="best" from="840378999" to="4245637#1"/>
    <trip id="veh128" type="veh_passenger" depart="824.52" departLane="best" from="700820554#0" to="456482267"/>
    <trip id="veh130" type="veh_passenger" depart="837.40" departLane="best" from="678960768#0" to="667228840#0"/>
    <trip id="veh131" type="veh_passenger" depart="843.85" departLane="best" from="840378998" to="22761597#1"/>
    <trip id="veh137" type="veh_passenger" depart="882.49" departLane="best" from="678960768#1" to="667228840#0"/>
    <trip id="veh138" type="veh_passenger" depart="888.94" departLane="best" from="678960768#0" to="1074348060#0"/>
    <trip id="veh141" type="veh_passenger" depart="908.26" departLane="best" from="678960768#0" to="22761597#1"/>
    <trip id="veh145" type="veh_passenger" depart="934.03" departLane="best" from="644875507#1" to="369829194"/>
    <trip id="veh146" type="veh_passenger" depart="940.47" departLane="best" departSpeed="max" from="914977491#0" to="4245637#1"/>
    <trip id="veh147" type="veh_passenger" depart="946.91" departLane="best" departSpeed="max" from="909967551" to="156782727#0"/>
    <trip id="veh148" type="veh_passenger" depart="953.35" departLane="best" departSpeed="max" from="909967551" to="22738849#1"/>
    <trip id="veh151" type="veh_passenger" depart="972.68" departLane="best" from="644875492#1" to="4245637#1"/>
    <trip id="veh152" type="veh_passenger" depart="979.12" departLane="best" from="369829194" to="456482267"/>
    <trip id="veh153" type="veh_passenger" depart="985.56" departLane="best" departSpeed="max" from="22738859" to="644875492#1"/>
    <trip id="veh156" type="veh_passenger" depart="1004.88" departLane="best" from="665068147#1" to="621030741#1"/>
    <trip id="veh158" type="veh_passenger" depart="1017.77" departLane="best" from="245317925#2" to="667228839"/>
    <trip id="veh159" type="veh_passenger" depart="1024.21" departLane="best" departSpeed="max" from="654885026" to="245317925#0"/>
    <trip id="veh160" type="veh_passenger" depart="1030.65" departLane="best" from="245317925#1" to="369829194"/>
    <trip id="veh161" type="veh_passenger" depart="1037.09" departLane="best" from="369829204#0" to="245317923"/>
    <trip id="veh164" type="veh_passenger" depart="1056.42" departLane="best" from="840378998" to="462035256"/>
    <trip id="veh165" type="veh_passenger" depart="1062.86" departLane="best" from="245317925#1" to="4245637#1"/>
    <trip id="veh167" type="veh_passenger" depart="1075.74" departLane="best" from="369829204#1" to="456482267"/>
    <trip id="veh168" type="veh_passenger" depart="1082.18" departLane="best" from="644875520" to="40122556#1"/>
    <trip id="veh171" type="veh_passenger" depart="1101.51" departLane="best" from="678960768#0" to="22738847"/>
    <trip id="veh172" type="veh_passenger" depart="1107.95" departLane="best" from="644875507#1" to="245317928"/>
    <trip id="veh174" type="veh_passenger" depart="1120.83" departLane="best" from="644875524" to="22761597#1"/>
    <trip id="veh175" type="veh_passenger" depart="1127.27" departLane="best" from="22738847" to="-224042473"/>
    <trip id="veh176" type="veh_passenger" depart="1133.72" departLane="best" from="700820554#2" to="1074926268"/>
    <trip id="veh180" type="veh_passenger" depart="1159.48" departLane="best" from="667228839" to="644875520"/>
    <trip id="veh182" type="veh_passenger" depart="1172.37" departLane="best" departSpeed="max" from="224057408#0" to="711708395"/>
    <trip id="veh184" type="veh_passenger" depart="1185.25" departLane="best" departSpeed="max" from="22738859" to="667228839"/>
    <trip id="veh186" type="veh_passenger" depart="1198.13" departLane="best" from="644875492#0" to="711708392"/>
    <trip id="veh187" type="veh_passenger" depart="1204.57" departLane="best" from="840378998" to="462035256"/>
    <trip id="veh188" type="veh_passenger" depart="1211.01" departLane="best" departSpeed="max" from="654885026" to="4245637#1"/>
    <trip id="veh190" type="veh_passenger" depart="1223.90" departLane="best" from="423798481" to="22761597#1"/>
    <trip id="veh198" type="veh_passenger" depart="1275.43" departLane="best" from="369829204#0" to="4245637#1"/>
    <trip id="veh199" type="veh_passenger" depart="1281.87" departLane="best" from="369829204#1" to="22761597#1"/>
    <trip id="veh202" type="veh_passenger" depart="1301.20" departLane="best" from="355084527" to="-224039649"/>
    <trip id="veh204" type="veh_passenger" depart="1314.08" departLane="best" from="369829204#1" to="644875507#1"/>
    <trip id="veh208" type="veh_passenger" depart="1339.85" departLane="best" from="369829204#0" to="22738847"/>
    <trip id="veh209" type="veh_passenger" depart="1346.29" departLane="best" from="423798481" to="-224039660#0"/>
    <trip id="veh210" type="veh_passenger" depart="1352.73" departLane="best" from="644875507#0" to="-224042474"/>
    <trip id="veh211" type="veh_passenger" depart="1359.17" departLane="best" from="369829194" to="456482267"/>
    <trip id="veh214" type="veh_passenger" depart="1378.50" departLane="best" from="667228839" to="35356690"/>
    <trip id="veh215" type="veh_passenger" depart="1384.94" departLane="best" from="667228839" to="665068147#1"/>
    <trip id="veh216" type="veh_passenger" depart="1391.38" departLane="best" departSpeed="max" from="22738859" to="1074926268"/>
    <trip id="veh218" type="veh_passenger" depart="1404.26" departLane="best" departSpeed="max" from="914977491#0" to="245317930"/>
    <trip id="veh219" type="veh_passenger" depart="1410.70" departLane="best" from="644875508" to="645165804#1"/>
    <trip id="veh221" type="veh_passenger" depart="1423.59" departLane="best" from="1092898261#2" to="621030741#1"/>
    <trip id="veh222" type="veh_passenger" depart="1430.03" departLane="best" departSpeed="max" from="632555185" to="22761597#1"/>
    <trip id="veh223" type="veh_passenger" depart="1436.47" departLane="best" departSpeed="max" from="654885026" to="644875520"/>
    <trip id="veh224" type="veh_passenger" depart="1442.91" departLane="best" departSpeed="max" from="224057408#0" to="456482267"/>
    <trip id="veh228" type="veh_passenger" depart="1468.68" departLane="best" departSpeed="max" from="654885026" to="1074926268"/>
    <trip id="veh231" type="veh_passenger" depart="1488.00" departLane="best" from="700820554#2" to="456482267"/>
    <trip id="veh235" type="veh_passenger" depart="1513.77" departLane="best" from="700820554#2" to="665068136#1"/>
    <trip id="veh236" type="veh_passenger" depart="1520.21" departLane="best" departSpeed="max" from="156420784" to="711708395"/>
    <trip id="veh237" type="veh_passenger" depart="1526.65" departLane="best" from="644875507#1" to="665068147#1"/>
    <trip id="veh238" type="veh_passenger" depart="1533.09" departLane="best" departSpeed="max" from="654885026" to="369829204#1"/>
    <trip id="veh239" type="veh_passenger" depart="1539.53" departLane="best" from="657272437" to="711708395"/>
    <trip id="veh240" type="veh_passenger" depart="1545.98" departLane="best" from="621030728" to="423798481"/>
    <trip id="veh244" type="veh_passenger" depart="1571.74" departLane="best" from="423774441#0" to="456482267"/>
    <trip id="veh245" type="veh_passenger" depart="1578.18" departLane="best" from="355084527" to="-224042474"/>
    <trip id="veh247" type="veh_passenger" depart="1591.07" departLane="best" departSpeed="max" from="654885026" to="245317923"/>
    <trip id="veh251" type="veh_passenger" depart="1616.83" departLane="best" departSpeed="max" from="654885026" to="621030728"/>
    <trip id="veh254" type="veh_passenger" depart="1636.16" departLane="best" departSpeed="max" from="654885026" to="245317925#0"/>
    <trip id="veh255" type="veh_passenger" depart="1642.60" departLane="best" from="632555219" to="423774441#0"/>
    <trip id="veh258" type="veh_passenger" depart="1661.92" departLane="best" departSpeed="max" from="654885026" to="245238968"/>
    <trip id="veh259" type="veh_passenger" depart="1668.37" departLane="best" departSpeed="max" from="22738859" to="156782727#1"/>
    <trip id="veh260" type="veh_passenger" depart="1674.81" departLane="best" from="22731331#1" to="156782727#1"/>
    <trip id="veh261" type="veh_passenger" depart="1681.25" departLane="best" from="576201844" to="644875520"/>
    <trip id="veh264" type="veh_passenger" depart="1700.57" departLane="best" departSpeed="max" from="909967551" to="4245637#1"/>
    <trip id="veh265" type="veh_passenger" depart="1707.02" departLane="best" from="245238968" to="1076611437#2"/>
    <trip id="veh266" type="veh_passenger" depart="1713.46" departLane="best" from="22731331#1" to="22761597#1"/>
    <trip id="veh269" type="veh_passenger" depart="1732.78" departLane="best" departSpeed="max" from="909967551" to="4249937"/>
    <trip id="veh270" type="veh_passenger" depart="1739.22" departLane="best" departSpeed="max" from="654885026" to="156782727#1"/>
    <trip id="veh272" type="veh_passenger" depart="1752.11" departLane="best" from="711708395" to="456482267"/>
    <trip id="veh275" type="veh_passenger" depart="1771.43" departLane="best" departSpeed="max" from="909967551" to="423798481"/>
    <trip id="veh276" type="veh_passenger" depart="1777.87" departLane="best" from="688086638" to="369829194"/>
    <trip id="veh279" type="veh_passenger" depart="1797.20" departLane="best" departSpeed="max" from="632555185" to="245317925#0"/>
    <trip id="veh280" type="veh_passenger" depart="1803.64" departLane="best" departSpeed="max" from="914977491#0" to="156782727#1"/>
    <trip id="veh282" type="veh_passenger" depart="1816.52" departLane="best" from="678960768#0" to="22761597#1"/>
    <trip id="veh283" type="veh_passenger" depart="1822.96" departLane="best" from="576201839" to="40122556#1"/>
    <trip id="veh286" type="veh_passenger" depart="1842.29" departLane="best" from="644875507#0" to="456482267"/>
    <trip id="veh287" type="veh_passenger" depart="1848.73" departLane="best" from="22738847" to="22761597#1"/>
    <trip id="veh289" type="veh_passenger" depart="1861.61" departLane="best" departSpeed="max" from="224057408#0" to="1074926268"/>
    <trip id="veh293" type="veh_passenger" depart="1887.38" departLane="best" departSpeed="max" from="654885026" to="40122556#1"/>
    <trip id="veh296" type="veh_passenger" depart="1906.70" departLane="best" from="369829204#1" to="4245637#1"/>
    <trip id="veh297" type="veh_passenger" depart="1913.15" departLane="best" from="644875508" to="688086638"/>
    <trip id="veh300" type="veh_passenger" depart="1932.47" departLane="best" from="667228839" to="456482267"/>
    <trip id="veh301" type="veh_passenger" depart="1938.91" departLane="best" from="245317925#0" to="156782727#1"/>
    <trip id="veh303" type="veh_passenger" depart="1951.80" departLane="best" departSpeed="max" from="909967551" to="4245637#1"/>
    <trip id="veh306" type="veh_passenger" depart="1971.12" departLane="best" from="245317925#2" to="22761597#1"/>
    <trip id="veh308" type="veh_passenger" depart="1984.00" departLane="best" from="700820554#0" to="456482267"/>
    <trip id="veh309" type="veh_passenger" depart="1990.44" departLane="best" departSpeed="max" from="909967551" to="840378999"/>
    <trip id="veh313" type="veh_passenger" depart="2016.21" departLane="best" departSpeed="max" from="909967551" to="22738849#1"/>
    <trip id="veh317" type="veh_passenger" depart="2041.98" departLane="best" from="245317925#0" to="711708392"/>
    <trip id="veh318" type="veh_passenger" depart="2048.42" departLane="best" from="678960768#1" to="4249937"/>
    <trip id="veh319" type="veh_passenger" depart="2054.86" departLane="best" from="245317925#2" to="775216094"/>
    <trip id="veh320" type="veh_passenger" depart="2061.30" departLane="best" from="369829204#0" to="4245637#1"/>
    <trip id="veh321" type="veh_passenger" depart="2067.74" departLane="best" departSpeed="max" from="914977491#0" to="621030741#1"/>
    <trip id="veh322" type="veh_passenger" depart="2074.18" departLane="best" from="621030728" to="369829204#0"/>
    <trip id="veh323" type="veh_passenger" depart="2080.63" departLane="best" from="22731331#1" to="621030728"/>
    <trip id="veh325" type="veh_passenger" depart="2093.51" departLane="best" from="667228839" to="22761597#1"/>
    <trip id="veh328" type="veh_passenger" depart="2112.83" departLane="best" from="156782224" to="775216094"/>
    <trip id="veh329" type="veh_passenger" depart="2119.28" departLane="best" from="644875492#1" to="22761597#1"/>
    <trip id="veh331" type="veh_passenger" depart="2132.16" departLane="best" departSpeed="max" from="632555185" to="1076611437#2"/>
    <trip id="veh332" type="veh_passenger" depart="2138.60" departLane="best" departSpeed="max" from="914977491#0" to="688086638"/>
    <trip id="veh333" type="veh_passenger" depart="2145.04" departLane="best" from="1074348061#2" to="156782727#1"/>
    <trip id="veh335" type="veh_passenger" depart="2157.93" departLane="best" departSpeed="max" from="654885026" to="4245637#1"/>
    <trip id="veh337" type="veh_passenger" depart="2170.81" departLane="best" from="621030728" to="35356690"/>
    <trip id="veh338" type="veh_passenger" depart="2177.25" departLane="best" departSpeed="max" from="909967551" to="4245637#1"/>
    <trip id="veh340" type="veh_passenger" depart="2190.13" departLane="best" from="245238968" to="645165804#1"/>
    <trip id="veh343" type="veh_passenger" depart="2209.46" departLane="best" from="245238968" to="245317925#0"/>
    <trip id="veh344" type="veh_passenger" depart="2215.90" departLane="best" from="632555219" to="840378999"/>
    <trip id="veh346" type="veh_passenger" depart="2228.78" departLane="best" departSpeed="max" from="632555185" to="4245637#1"/>
    <trip id="veh348" type="veh_passenger" depart="2241.67" departLane="best" departSpeed="max" from="632555185" to="22761597#1"/>
    <trip id="veh351" type="veh_passenger" depart="2260.99" departLane="best" from="678960768#1" to="35356690"/>
    <trip id="veh352" type="veh_passenger" depart="2267.43" departLane="best" from="644875520" to="665068136#1"/>
    <trip id="veh353" type="veh_passenger" depart="2273.87" departLane="best" departSpeed="max" from="914977491#0" to="4245637#0"/>
    <trip id="veh356" type="veh_passenger" depart="2293.20" departLane="best" from="576201839" to="40122556#1"/>
    <trip id="veh357" type="veh_passenger" depart="2299.64" departLane="best" from="657272437" to="369829194"/>
    <trip id="veh359" type="veh_passenger" depart="2312.52" departLane="best" from="423798481" to="775216094"/>
    <trip id="veh362" type="veh_passenger" depart="2331.85" departLane="best" from="355084527" to="245317925#1"/>
    <trip id="veh363" type="veh_passenger" depart="2338.29" departLane="best" departSpeed="max" from="654885026" to="644875520"/>
    <trip id="veh366" type="veh_passenger" depart="2357.61" departLane="best" departSpeed="max" from="909967551" to="840378999"/>
    <trip id="veh369" type="veh_passenger" depart="2376.94" departLane="best" departSpeed="max" from="654885026" to="678960768#1"/>
    <trip id="veh373" type="veh_passenger" depart="2402.70" departLane="best" departSpeed="max" from="632555185" to="645165804#1"/>
    <trip id="veh374" type="veh_passenger" depart="2409.15" departLane="best" departSpeed="max" from="224057408#0" to="1074926268"/>
    <trip id="veh376" type="veh_passenger" depart="2422.03" departLane="best" departSpeed="max" from="22738859" to="688086638"/>
    <trip id="veh378" type="veh_passenger" depart="2434.91" departLane="best" departSpeed="max" from="22738859" to="22761597#1"/>
    <trip id="veh382" type="veh_passenger" depart="2460.68" departLane="best" from="245317930" to="456482267"/>
    <trip id="veh384" type="veh_passenger" depart="2473.56" departLane="best" departSpeed="max" from="22738859" to="667228839"/>
    <trip id="veh385" type="veh_passenger" depart="2480.00" departLane="best" from="22738847" to="35356690"/>
    <trip id="veh386" type="veh_passenger" depart="2486.45" departLane="best" departSpeed="max" from="4245528" to="22761597#1"/>
    <trip id="veh387" type="veh_passenger" depart="2492.89" departLane="best" departSpeed="max" from="632555185" to="456482267"/>
    <trip id="veh389" type="veh_passenger" depart="2505.77" departLane="best" departSpeed="max" from="909967551" to="621030741#1"/>
    <trip id="veh394" type="veh_passenger" depart="2537.98" departLane="best" from="245238968" to="657272437"/>
    <trip id="veh395" type="veh_passenger" depart="2544.42" departLane="best" from="644875492#1" to="245317930"/>
    <trip id="veh398" type="veh_passenger" depart="2563.74" departLane="best" from="644875520" to="665068147#1"/>
    <trip id="veh400" type="veh_passenger" depart="2576.63" departLane="best" departSpeed="max" from="40122560#0" to="456482267"/>
    <trip id="veh401" type="veh_passenger" depart="2583.07" departLane="best" from="621030728" to="775216094"/>
    <trip id="veh402" type="veh_passenger" depart="2589.51" departLane="best" from="576201844" to="688086638"/>
    <trip id="veh405" type="veh_passenger" depart="2608.84" departLane="best" from="678960768#1" to="644875507#1"/>
    <trip id="veh408" type="veh_passenger" depart="2628.16" departLane="best" departSpeed="max" from="909967551" to="667228840#0"/>
    <trip id="veh409" type="veh_passenger" depart="2634.60" departLane="best" departSpeed="max" from="909967551" to="657272437"/>
    <trip id="veh412" type="veh_passenger" depart="2653.93" departLane="best" from="423774438#0" to="621030741#1"/>
    <trip id="veh417" type="veh_passenger" depart="2686.13" departLane="best" departSpeed="max" from="632555185" to="688086638"/>
    <trip id="veh419" type="veh_passenger" depart="2699.02" departLane="best" from="245317925#1" to="369829194"/>
    <trip id="veh426" type="veh_passenger" depart="2744.11" departLane="best" from="369829204#1" to="1076611437#2"/>
    <trip id="veh428" type="veh_passenger" depart="2756.99" departLane="best" departSpeed="max" from="909967551" to="-224057408#0"/>
    <trip id="veh430" type="veh_passenger" depart="2769.87" departLane="best" departSpeed="max" from="909967551" to="667228840#0"/>
    <trip id="veh432" type="veh_passenger" depart="2782.76" departLane="best" from="621030728" to="840378998"/>
    <trip id="veh434" type="veh_passenger" depart="2795.64" departLane="best" from="22731331#1" to="156782727#1"/>
    <trip id="veh435" type="veh_passenger" depart="2802.08" departLane="best" from="700820554#2" to="40122556#1"/>
    <trip id="veh437" type="veh_passenger" depart="2814.97" departLane="best" from="644875492#0" to="-224042473"/>
    <trip id="veh438" type="veh_passenger" depart="2821.41" departLane="best" from="678960768#0" to="22761597#1"/>
    <trip id="veh439" type="veh_passenger" depart="2827.85" departLane="best" from="1092898261#2" to="456482267"/>
    <trip id="veh441" type="veh_passenger" depart="2840.73" departLane="best" from="22738847" to="22761597#1"/>
    <trip id="veh445" type="veh_passenger" depart="2866.50" departLane="best" departSpeed="max" from="22738859" to="22738849#0"/>
    <trip id="veh446" type="veh_passenger" depart="2872.94" departLane="best" from="644875520" to="-224042473"/>
    <trip id="veh454" type="veh_passenger" depart="2924.47" departLane="best" from="576201839" to="40122556#1"/>
    <trip id="veh458" type="veh_passenger" depart="2950.24" departLane="best" from="840378999" to="1074926268"/>
    <trip id="veh461" type="veh_passenger" depart="2969.56" departLane="best" from="644875507#1" to="4245637#1"/>
    <trip id="veh462" type="veh_passenger" depart="2976.00" departLane="best" from="245317925#2" to="840378999"/>
    <trip id="veh463" type="veh_passenger" depart="2982.45" departLane="best" from="576201844" to="40122556#1"/>
    <trip id="veh464" type="veh_passenger" depart="2988.89" departLane="best" from="644875492#1" to="1076611437#2"/>
    <trip id="veh465" type="veh_passenger" depart="2995.33" departLane="best" departSpeed="max" from="654885026" to="667228839"/>
    <trip id="veh466" type="veh_passenger" depart="3001.77" departLane="best" departSpeed="max" from="654885026" to="22761597#1"/>
    <trip id="veh469" type="veh_passenger" depart="3021.10" departLane="best" from="369829204#1" to="1076611437#2"/>
    <trip id="veh470" type="veh_passenger" depart="3027.54" departLane="best" from="369829204#1" to="621030741#1"/>
    <trip id="veh474" type="veh_passenger" depart="3053.30" departLane="best" from="678960768#1" to="4249937"/>
    <trip id="veh475" type="veh_passenger" depart="3059.74" departLane="best" from="632555219" to="456482267"/>
    <trip id="veh477" type="veh_passenger" depart="3072.63" departLane="best" from="667228839" to="667228840#1"/>