<?xml version="1.0" encoding="UTF-8"?>

<!-- generated on 2024-03-25 16:01:48.517063 by osmWebWizard.py v1_19_0+0000-baa66a0f364
<configuration>
    <net-file value="C:\Users\Gabe Piano\Sumo\2024-03-25-16-01-18\osm.net.xml.gz"/>
    <additional-files value="C:\Users\Gabe Piano\Sumo\2024-03-25-16-01-18\osm_stops.add.xml,C:\Users\Gabe Piano\Sumo\2024-03-25-16-01-18\osm_pt.rou.xml"/>
    <output-trip-file value="C:\Users\Gabe Piano\Sumo\2024-03-25-16-01-18\osm.pedestrian.trips.xml"/>
    <route-file value="C:\Users\Gabe Piano\Sumo\2024-03-25-16-01-18\osm.pedestrian.rou.xml"/>
    <persontrips value="True"/>
    <persontrip.walk-opposite-factor value="0.8"/>
    <prefix value="ped"/>
    <trip-attributes value="modes=&quot;public&quot;"/>
    <vehicle-class value="pedestrian"/>
    <fringe-factor value="1"/>
    <insertion-density value="10.0"/>
</configuration>
-->

<!-- generated on 2024-03-25 16:01:48 by Eclipse SUMO duarouter Version 1.19.0
<configuration xmlns:xsi="http://www.w3.org/2001/XMLSchema-instance" xsi:noNamespaceSchemaLocation="http://sumo.dlr.de/xsd/duarouterConfiguration.xsd">

    <input>
        <net-file value="C:\Users\Gabe Piano\Sumo\2024-03-25-16-01-18\osm.net.xml.gz"/>
        <additional-files value="C:\Users\Gabe Piano\Sumo\2024-03-25-16-01-18\osm_stops.add.xml,C:\Users\Gabe Piano\Sumo\2024-03-25-16-01-18\osm_pt.rou.xml"/>
        <route-files value="C:\Users\Gabe Piano\Sumo\2024-03-25-16-01-18\osm.pedestrian.trips.xml"/>
    </input>

    <output>
        <output-file value="C:\Users\Gabe Piano\Sumo\2024-03-25-16-01-18\osm.pedestrian.rou.xml"/>
        <alternatives-output value="NUL"/>
    </output>

    <processing>
        <persontrip.walk-opposite-factor value="0.8"/>
    </processing>

    <time>
        <begin value="0.0"/>
        <end value="3600.0"/>
    </time>

    <report>
        <no-warnings value="true"/>
        <ignore-errors value="true"/>
        <no-step-log value="true"/>
    </report>

</configuration>
-->

<routes xmlns:xsi="http://www.w3.org/2001/XMLSchema-instance" xsi:noNamespaceSchemaLocation="http://sumo.dlr.de/xsd/routes_file.xsd">
    <vType id="ped_pedestrian" vClass="pedestrian"/>
    <person id="ped2" type="ped_pedestrian" depart="15.73">
        <walk edges="645165804#1 665068147#1 688086638 711708399#1 675445993#1 675445997 675445995#0 675172195 711708396#1 711708389#3 711708389#2 749621680 749621679#0 749621679#1 749621678 722094931#1 909949880#3 909949880#2 665068135#3 665068135#2 665068135#1 238969210 167048050 295122031#0 576201872 576201873 576201869 1192230684 576201865 576201871"/>
    </person>
    <person id="ped4" type="ped_pedestrian" depart="31.47">
        <walk edges="222840564 -166104874#1"/>
    </person>
    <person id="ped7" type="ped_pedestrian" depart="55.07">
        <walk edges="572003068#1 572003068#0 711708400#3 369827665#0 369827665#1"/>
    </person>
    <person id="ped10" type="ped_pedestrian" depart="78.67">
        <walk edges="688086638 711708399#1 675445993#1 675445997 675445995#0 675172195 711708396#1 711708389#3 711708389#2 749621680 749621679#0 749621679#1 749621678 722094931#1 909949880#3 909949880#2 665068135#3 665068135#2 665068135#1 238969210 167048050 295122031#1 295122031#2 295122031#3 30260201 37935481#1 580395205#1"/>
    </person>
    <person id="ped12" type="ped_pedestrian" depart="94.40">
        <walk edges="878862905#1 878865705 878862911#1 878862912 238197666 355083423 355083421 355083424 711708391 711708389#2 749621680 749621679#0 849616388 849516786 1074940676 156780851"/>
    </person>
    <person id="ped13" type="ped_pedestrian" depart="102.26">
        <walk edges="-245317915#0 -665068147#0 195513140#1 -369829204#1 -355084529 -355084526 -700820552 -245317925#0 -245317925#1"/>
    </person>
    <person id="ped14" type="ped_pedestrian" depart="110.13">
        <walk edges="711708398 711708400#3 369827665#0 665068147#1 688086638 711708399#1 675445993#1 675445997 675445995#0 675172195 711708396#1 711708389#3 711708389#2 749621680 749621679#0 749621679#1 749621678 722094931#1 909949880#3 909949880#2 665068135#3 37935914"/>
    </person>
    <person id="ped16" type="ped_pedestrian" depart="125.86">
        <walk edges="361113855 572003068#0 711708400#3 369827665#0 665068147#1 688086638 711708399#1 675445993#1 675445997 675445995#0 675172195 711708396#1 711708389#3 711708391 355083424 355083421 355083423 238197666 878862912 878862911#2"/>
    </person>
    <person id="ped18" type="ped_pedestrian" depart="141.60">
        <walk edges="711708391 711708389#2 749621680 749621679#0 749621679#1 749621678 722094931#1 909949880#3 909949880#2 1076611437#2 4245637#0 4245637#1"/>
    </person>
    <person id="ped19" type="ped_pedestrian" depart="149.46">
        <walk edges="711708400#3 369827665#0 665068147#1 688086638 711708399#1 675445993#1 675445997 675445995#0 675172195 711708396#1 711708389#3 711708389#2 749621680 749621679#0 749621679#1 749621678 722094931#1 909949880#3 909949880#2 665068135#3 665068135#2 665068135#1 238969210 167048050 295122031#1 295122031#2 295122031#3 30260201 37935481#2"/>
    </person>
    <person id="ped30" type="ped_pedestrian" depart="236.00">
        <walk edges="909949880#2 665068135#3 665068135#2 665068135#1 238969210 167048050 295122031#1 295122031#2 295122031#3 850328349#1 561497026#3"/>
    </person>
    <person id="ped31" type="ped_pedestrian" depart="243.86">
        <walk edges="37927947#1 32869234 295122031#2 295122031#1 295122031#0 576201872 576201873"/>
    </person>
    <person id="ped32" type="ped_pedestrian" depart="251.73">
        <walk edges="711708397#0 711708396#1 675172195"/>
    </person>
    <person id="ped38" type="ped_pedestrian" depart="298.93">
        <walk edges="777923706#1 665068127 1192230683 561497026#4 561497026#3 850328349#1 295122031#3 295122031#2 295122031#1 167048050 238969210 665068135#1 665068135#2 665068135#3 909949880#2 909949880#3 722094931#1 749621678 749621679#1 749621679#0 749621680 711708389#1 1015988488#0 1015988488#1 245317925#1"/>
    </person>
    <person id="ped39" type="ped_pedestrian" depart="306.79">
        <walk edges="1076611437#1 909949880#2 909949880#3 722094931#1 749621678 749621679#1 849616388 849516786 1074940676"/>
    </person>
    <person id="ped42" type="ped_pedestrian" depart="330.39">
        <walk edges="167048050 238969210 665068135#1 665068135#2 665068135#3 909949880#2 909949880#3 722094931#1 749621678 749621679#1 749621679#0 749621680 711708389#1 1018918359"/>
    </person>
    <person id="ped43" type="ped_pedestrian" depart="338.26">
        <walk edges="909970046 37935481#6 37935481#5 37935481#4 561497026#2 850328349#1 295122031#3 32869234"/>
    </person>
    <person id="ped47" type="ped_pedestrian" depart="369.73">
        <walk edges="-166104888#1 -166104887#1 -166104887#0 166104887#0"/>
    </person>
    <person id="ped49" type="ped_pedestrian" depart="385.46">
        <walk edges="878862911#2 878862912 238197666 355083423 355083421 355083424 711708391 711708389#3 711708396#1 675172195 675445995#0 675445997 675445993#1 711708399#1 688086638 665068147#1 369827665#0 711708400#3"/>
    </person>
    <person id="ped51" type="ped_pedestrian" depart="401.19">
        <walk edges="576201872 295122031#0 167048050 238969210 665068135#1 665068135#2 665068135#3 909949880#2 909949880#3 722094931#1 749621678 749621679#1 749621679#0 749621680 711708389#2 711708389#3 711708396#1 675172195 675445995#0 675445997 675445993#1 711708399#1 688086638 665068147#1 369827665#0 711708400#3 572003068#0 361113855 361113856"/>
    </person>
    <person id="ped52" type="ped_pedestrian" depart="409.06">
        <walk edges="1076611437#2 665068135#3 665068135#2 665068135#1 238969210 167048050 295122031#1 295122031#2 295122031#3 850328349#1 561497026#3 561497026#4"/>
    </person>
    <person id="ped54" type="ped_pedestrian" depart="424.79">
        <walk edges="245317925#0 1015988488#1 1015988488#0 711708389#1 711708389#2 711708391 355083424 355083421 355083423 238197666 878862912 878862911#1 878865705 878862905#0"/>
    </person>
    <person id="ped55" type="ped_pedestrian" depart="432.66">
        <walk edges="743184219#1 722094931#1 909949880#3 909949880#2 1076611437#1"/>
    </person>
    <person id="ped58" type="ped_pedestrian" depart="456.26">
        <walk edges="1192229717 1192229718 1077804815 295122031#2 295122031#3 850328349#1 561497026#3"/>
    </person>
    <person id="ped60" type="ped_pedestrian" depart="471.99">
        <walk edges="665068135#3 909949880#2 909949880#3 722094931#1 749621678 749621679#1 749621679#0 749621680 711708389#2 711708389#3 711708396#1 675172195 675445995#0 675445997 675445993#1 711708399#1 688086638 665068147#1 369827665#0 711708400#3 572003068#0 361113855 361113856"/>
    </person>
    <person id="ped61" type="ped_pedestrian" depart="479.86">
        <walk edges="675172196 711708397#0 711708396#1 675172195 675445995#0 675445997 675445993#1 711708399#1 688086638 665068147#1 369827665#0 711708400#3 572003068#0 361113855 361113856 361113853"/>
    </person>
    <person id="ped67" type="ped_pedestrian" depart="527.06">
        <walk edges="-245238968 -678960768#0 -678960768#1 -369829204#0 -369829204#1 -355084529 -355084526 -700820552 -245317925#0 1015988488#1 1015988488#0 711708389#1 749621680 749621679#0 749621679#1 749621678 722094931#1 909949880#3 909949880#2 665068135#3 665068135#2 665068135#1 238969210 167048050 295122031#1 295122031#2 295122031#3"/>
    </person>
    <person id="ped69" type="ped_pedestrian" depart="542.79">
        <walk edges="665068147#1 688086638 711708399#1 675445993#1 675445997 675445995#0 675172195 711708396#1 711708389#3 711708389#2 749621680 749621679#0 749621679#1 749621678 722094931#1 909949880#3 909949880#2 -1076611437#2 -4245637#0"/>
    </person>
    <person id="ped70" type="ped_pedestrian" depart="550.66">
        <walk edges="295122031#0 167048050 238969210 665068135#1 665068135#2 665068135#3 909949880#2 909949880#3 722094931#1 749621678 749621679#1 749621679#0 749621680 711708389#1 1015988488#0 1015988488#1 -245317925#0 -700820552 -355084526 -355084529 -369829204#1 -369829204#0 -678960768#1 369827665#2"/>
    </person>
    <person id="ped86" type="ped_pedestrian" depart="676.52">
        <walk edges="295122023 1192230684 576201869 576201873 576201872 295122031#0 167048050 238969210 665068135#1 665068135#2 665068135#3 909949880#2 909949880#3 722094931#1 749621678 749621679#1 749621679#0 749621680 711708389#2 711708389#3 711708396#1 675172195 675445995#0 675445997 675445993#1"/>
    </person>
    <person id="ped88" type="ped_pedestrian" depart="692.25">
        <walk edges="-245317925#1 1015988488#1 1015988488#0 711708389#1 749621680 749621679#0 749621679#1 749621678 722094931#1 909949880#3 909949880#2 665068135#3 665068135#2 665068135#1 238969210 167048050 295122031#1 295122031#2 295122031#3 850328349#1 561497026#2 37935481#4 37935481#5 37935481#6 37935481#7 22761597#0"/>
    </person>
    <person id="ped91" type="ped_pedestrian" depart="715.85">
        <walk edges="878865705 878862911#1 878862912 238197666 355083423 355083421 355083424 711708391 711708389#2 711708389#1 1015988488#0 1015988488#1 -245317925#1"/>
    </person>
    <person id="ped97" type="ped_pedestrian" depart="763.05">
        <walk edges="238197666 355083423 355083421 355083424 711708391 711708389#3 711708396#1 675172195 675445995#0 675445997 675445993#1 711708399#1 688086638 665068147#1 369827665#0 711708400#3"/>
    </person>
    <person id="ped99" type="ped_pedestrian" depart="778.79">
        <walk edges="909970046 37935481#6 37935481#5 37935481#4 561497026#2 850328349#1 295122031#3 295122031#2 295122031#1 167048050 238969210 665068135#1 665068135#2 665068135#3 909949880#2 909949880#3 722094931#1 749621678 749621679#1 749621679#0 749621680 711708389#2 711708389#3 711708397#0 711708392 1074926268 711708395"/>
    </person>
    <person id="ped101" type="ped_pedestrian" depart="794.52">
        <walk edges="711708398 711708400#3 369827665#0 665068147#1 -665068147#0"/>
    </person>
    <person id="ped105" type="ped_pedestrian" depart="825.98">
        <walk edges="1076611437#1 909949880#2 909949880#3 722094931#1 749621678 749621679#1 749621679#0 749621680 711708389#2 711708389#3 711708396#1 675172195 675445995#0 675445997 675445993#1"/>
    </person>
    <person id="ped109" type="ped_pedestrian" depart="857.45">
        <walk edges="-645165804#1 -645165804#0 195513140#1 -369829204#1 -355084529 -355084526 -700820552 -245317925#0 1015988488#1 1015988488#0 711708389#1 749621680 749621679#0 749621679#1 749621678 722094931#1 909949880#3 909949880#2 665068135#3" busStop="1723298719"/> <!-- F.B. Harrison -->
        <walk edges="149828221#0 149828221#1 37927947#1" busStop="11061344311"/> <!-- Pasay City Terminal -->
        <walk edges="1192229717"/>
    </person>
    <person id="ped110" type="ped_pedestrian" depart="865.32">
        <walk edges="878862911#1 878862912 238197666 355083423 355083421 355083424 711708391 711708389#2 749621680 749621679#0 749621679#1 749621678 722094931#1 909949880#3 909949880#2 665068135#3 665068135#2 665068135#1 238969210 167048050 295122031#1 295122031#2 295122031#3 30260201 37935481#2"/>
    </person>
    <person id="ped111" type="ped_pedestrian" depart="873.18">
        <walk edges="369827665#0 665068147#1 688086638 711708399#1 675445993#1 675445997 675445995#0 675172195 711708396#1 711708389#3 711708389#2 749621680 749621679#0 749621679#1 749621678 722094931#1 909949880#3 909949880#2 665068135#3 665068135#2 665068135#1 238969210 167048050 295122031#1 295122031#2 295122031#3 850328349#1 561497026#3 561497026#4 1192230683 665068127"/>
    </person>
    <person id="ped115" type="ped_pedestrian" depart="904.65">
        <walk edges="-22761597#1 22761597#1 37935481#7 37935481#6 37935481#5 37935481#4 561497026#2 850328349#1 295122031#3 295122031#2 295122031#1 167048050 238969210 665068135#1 665068135#2 665068135#3 909949880#2 909949880#3 722094931#1 749621678 749621679#1 749621679#0 749621680 711708389#1 1015988488#0 1015988488#1 -245317925#0 -700820552 -355084526 -355084529 -369829204#1 195513140#1 -665068147#0 -245317915#0 -711708393 -711708394"/>
    </person>
    <person id="ped116" type="ped_pedestrian" depart="912.52">
        <walk edges="37935481#7 37935481#6 37935481#5 37935481#4 561497026#2 561497026#3 576201870#1"/>
    </person>
    <person id="ped117" type="ped_pedestrian" depart="920.38">
        <walk edges="1065669332 665068127 1192230683 561497026#4 561497026#3 850328349#1 295122031#3 295122031#2 295122031#1 167048050 238969210 665068135#1 665068135#2 665068135#3 909949880#2 909949880#3 722094931#1 749621678 749621679#1 749621679#0 749621680 711708389#1 1015988488#0 1015988488#1 -245317925#0 -700820552 -355084526 -355084529"/>
    </person>
    <person id="ped118" type="ped_pedestrian" depart="928.25">
        <walk edges="749621680 749621679#0 849616388 849516786 1074940676"/>
    </person>
    <person id="ped119" type="ped_pedestrian" depart="936.12">
        <walk edges="37935481#7 37935481#6 37935481#5 37935481#4 561497026#2 850328349#1 295122031#3 295122031#2 295122031#1 167048050 238969210 665068135#1 665068135#2 665068135#3 1076611437#2 4245637#0 4245637#1"/>
    </person>
    <person id="ped124" type="ped_pedestrian" depart="975.45">
        <walk edges="576201870#0 576201871 576201865 1192230684 576201869 576201873 576201872 295122031#0 295122031#1 1077804815 1192229718 1192229717"/>
    </person>
    <person id="ped132" type="ped_pedestrian" depart="1038.38">
        <walk edges="711708395 1074926268 711708392 711708397#0 711708389#3 711708389#2 749621680 749621679#0 749621679#1 749621678 722094931#1 909949880#3 909949880#2 665068135#3 665068135#2 665068135#1 238969210 167048050 295122031#1 295122031#2 295122031#3 30260201 37935481#1 580395205#1 580395207"/>
    </person>
    <person id="ped135" type="ped_pedestrian" depart="1061.98">
        <walk edges="711708389#1 749621680 749621679#0 749621679#1 749621678 722094931#1 909949880#3 909949880#2 665068135#3" busStop="1723298719"/> <!-- F.B. Harrison -->
        <walk edges="149828221#0 149828221#1 37927947#1" busStop="11061344311"/> <!-- Pasay City Terminal -->
        <walk edges="1192229717"/>
    </person>
    <person id="ped136" type="ped_pedestrian" depart="1069.85">
        <walk edges="576201865 1192230684 576201869 576201873 576201872 295122031#0 167048050 238969210 665068135#1 665068135#2 665068135#3 909949880#2 909949880#3 722094931#1 749621678 749621679#1 849616388 849516786"/>
    </person>
    <person id="ped139" type="ped_pedestrian" depart="1093.45">
        <walk edges="1077804815 295122031#1 167048050 238969210 665068135#1 665068135#2 37935914"/>
    </person>
    <person id="ped141" type="ped_pedestrian" depart="1109.18">
        <walk edges="561497026#2 850328349#1 295122031#3 295122031#2 295122031#1 167048050 238969210 665068135#1 665068135#2 665068135#3 1076611437#1"/>
    </person>
    <person id="ped143" type="ped_pedestrian" depart="1124.91">
        <walk edges="711708397#1 711708397#0 711708396#1 675172195 675445995#0 675445997 675445993#1 711708399#1 688086638 -665068147#0 -245317915#0"/>
    </person>
    <person id="ped148" type="ped_pedestrian" depart="1164.25">
        <walk edges="22738847 245317925#0 1015988488#1 1015988488#0 711708389#1 749621680 749621679#0 749621679#1 749621678 722094931#1 909949880#3 909949880#2 -1076611437#1"/>
    </person>
    <person id="ped151" type="ped_pedestrian" depart="1187.84">
        <walk edges="711708395 1074926268 711708392 711708397#0 711708389#3 711708389#2 749621680 749621679#0 749621679#1 749621678 722094931#1 909949880#3 909949880#2 665068135#3 665068135#2 665068135#1 238969210 167048050 295122031#1 295122031#2 295122031#3 850328349#1 561497026#2 37935481#3"/>
    </person>
    <person id="ped152" type="ped_pedestrian" depart="1195.71">
        <walk edges="-580395205#1 37935481#1 30260201 295122031#3 295122031#2 295122031#1 167048050 238969210 665068135#1 665068135#2 665068135#3 -1076611437#2 -4245637#0"/>
    </person>
    <person id="ped154" type="ped_pedestrian" depart="1211.44">
        <walk edges="675445997 675445993#1 711708399#1 688086638 665068147#1 369827665#0 711708400#3"/>
    </person>
    <person id="ped157" type="ped_pedestrian" depart="1235.04">
        <walk edges="675445993#0 675445997 675445995#0 675172195 711708396#1 711708389#3 711708389#2 749621680 749621679#0"/>
    </person>
    <person id="ped160" type="ped_pedestrian" depart="1258.64">
        <walk edges="722094931#1 749621678 749621679#1 749621679#0 749621680 711708389#2 711708391 355083424 355083421 355083423 878862910 878862911#3"/>
    </person>
    <person id="ped164" type="ped_pedestrian" depart="1290.11">
        <walk edges="678960768#1 369829204#0 369829204#1 355084527 632555219 22738847 245317925#0 1015988488#1 1015988488#0 711708389#1 749621680 749621679#0 749621679#1 749621678 722094931#1"/>
    </person>
    <person id="ped169" type="ped_pedestrian" depart="1329.44">
        <walk edges="245317925#2 -245317925#2 -245317925#1 1015988488#1 1015988488#0 711708389#1 749621680 749621679#0 749621679#1 749621678 722094931#1 909949880#3 909949880#2 665068135#3 665068135#2 665068135#1 238969210 167048050 295122031#1 295122031#2 295122031#3 850328349#1 561497026#3 561497026#4 1192230683"/>
    </person>
    <person id="ped172" type="ped_pedestrian" depart="1353.04">
        <walk edges="149828221#0" busStop="1723298719"/> <!-- F.B. Harrison -->
        <walk edges="665068135#3 909949880#2 909949880#3 722094931#1"/>
    </person>
    <person id="ped174" type="ped_pedestrian" depart="1368.77">
        <walk edges="561497026#4 561497026#3 850328349#1 295122031#3 295122031#2 295122031#1 167048050"/>
    </person>
    <person id="ped175" type="ped_pedestrian" depart="1376.64">
        <walk edges="878865704 878862905#0 878865705 878862911#1 878862912 238197666 355083423 355083421 355083424 711708391 711708389#3 711708396#1 675172195 675445995#0 675445997 675445993#1 711708399#1 688086638 665068147#1 369827665#0 711708400#3 572003068#0 361113855"/>
    </person>
    <person id="ped176" type="ped_pedestrian" depart="1384.51">
        <walk edges="849516786 849616388 749621679#0 749621680 711708389#1 1015988488#0 1015988488#1 -245317925#0 -700820552 -355084526"/>
    </person>
    <person id="ped177" type="ped_pedestrian" depart="1392.37">
        <walk edges="878862911#2 878862912 238197666 355083423 355083421 355083424 711708391 711708389#2 711708389#1 1015988488#0 1015988488#1 -245317925#0 -700820552"/>
    </person>
    <person id="ped178" type="ped_pedestrian" depart="1400.24">
        <walk edges="878862910 355083423 355083421 355083424 711708391 711708389#2 749621680 749621679#0 749621679#1 749621678 722094931#1 909949880#3 909949880#2 1076611437#1"/>
    </person>
    <person id="ped188" type="ped_pedestrian" depart="1478.91">
        <walk edges="576201865 1192230684 576201869 576201873 576201872 295122031#0 295122031#1 295122031#2 32869234 37927947#1 149828221#1"/>
    </person>
    <person id="ped191" type="ped_pedestrian" depart="1502.51">
        <walk edges="1192230684 576201869 576201873 576201872 295122031#0 167048050 238969210 665068135#1 665068135#2 665068135#3 909949880#2 909949880#3 722094931#1 749621678 749621679#1 749621679#0 749621680 711708389#2 711708389#3 711708396#1 675172195 675445995#0 675445997 675445993#1 711708399#1 688086638 195513140#0"/>
    </person>
    <person id="ped192" type="ped_pedestrian" depart="1510.37">
        <walk edges="167048240#0 1192229716"/>
    </person>
    <person id="ped194" type="ped_pedestrian" depart="1526.11">
        <walk edges="849616388 749621679#1 749621678 722094931#1 909949880#3 909949880#2 665068135#3 665068135#2 665068135#1 238969210 167048050 295122031#0 576201872 576201873 576201869 1192230684 576201865 576201871"/>
    </person>
    <person id="ped196" type="ped_pedestrian" depart="1541.84">
        <walk edges="1192229718 1192229717" busStop="11061344311"/> <!-- Pasay City Terminal -->
        <walk edges="37927947#1 149828221#1 149828221#0" busStop="1723298719"/> <!-- F.B. Harrison -->
        <walk edges="665068135#3 909949880#2 909949880#3 722094931#1 749621678 749621679#1 749621679#0 749621680 711708389#1 1015988488#0 1015988488#1 -245317925#0 -700820552 -355084526 -355084529 -369829204#1 -369829204#0 -678960768#1 369827665#2"/>
    </person>
    <person id="ped198" type="ped_pedestrian" depart="1557.57">
        <walk edges="22738847 245317925#0 1015988488#1 1015988488#0 711708389#1 749621680 749621679#0 749621679#1 749621678 722094931#1 909949880#3 909949880#2 665068135#3 665068135#2 665068135#1 238969210 167048050 295122031#1 295122031#2 295122031#3 30260201 37935481#2"/>
    </person>
    <person id="ped202" type="ped_pedestrian" depart="1589.04">
        <walk edges="675445997 675445993#1 711708399#1 688086638 665068147#1 369827665#1 -678960768#0"/>
    </person>
    <person id="ped204" type="ped_pedestrian" depart="1604.77">
        <walk edges="561497026#1 561497026#2 850328349#1 295122031#3 295122031#2 295122031#1 167048050 238969210 665068135#1 665068135#2 665068135#3 909949880#2 909949880#3 722094931#1 749621678 749621679#1 849616388 849516786 1074940676 156780851"/>
    </person>
    <person id="ped205" type="ped_pedestrian" depart="1612.64">
        <walk edges="711708389#1 749621680 749621679#0 749621679#1 749621678 722094931#1 909949880#3 909949880#2 665068135#3 665068135#2 665068135#1 665068135#0"/>
    </person>
    <person id="ped208" type="ped_pedestrian" depart="1636.24">
        <walk edges="1074940676 849516786 849616388 749621679#1 749621678 722094931#1 909949880#3 909949880#2 665068135#3 665068135#2 665068135#1 238969210 167048050 295122031#0"/>
    </person>
    <person id="ped210" type="ped_pedestrian" depart="1651.97">
        <walk edges="195513140#2 369829204#1 355084527 632555219 22738847 245317925#0 1015988488#1 1015988488#0 711708389#1 749621680 749621679#0 749621679#1 749621678 722094931#1 909949880#3 909949880#2 665068135#3 665068135#2 665068135#1 238969210 167048050 295122031#1 295122031#2 295122031#3 850328349#1 561497026#2 561497026#1 561497026#0"/>
    </person>
    <person id="ped212" type="ped_pedestrian" depart="1667.70">
        <walk edges="30260201 295122031#3 295122031#2 295122031#1 167048050 238969210 665068135#1 665068135#2 665068135#3 909949880#2 909949880#3 722094931#1 749621678 749621679#1 849616388 849516786 1074940676"/>
    </person>
    <person id="ped219" type="ped_pedestrian" depart="1722.77">
        <walk edges="245317925#0 22738847 632555219 355084527 369829204#1 369829204#0 678960768#1"/>
    </person>
    <person id="ped220" type="ped_pedestrian" depart="1730.63">
        <walk edges="576201869 576201873 576201872 295122031#0 167048050 238969210 665068135#1 665068135#2 665068135#3 909949880#2"/>
    </person>
    <person id="ped224" type="ped_pedestrian" depart="1762.10">
        <walk edges="711708392 711708397#0 711708396#1 675172195 675445995#0 675445997 675445993#1 711708399#1 688086638 665068147#1 369827665#1 369827665#2"/>
    </person>
    <person id="ped228" type="ped_pedestrian" depart="1793.57">
        <walk edges="665068147#1 688086638 711708399#1 675445993#1 675445997 675445995#0 675172195 711708396#1 711708389#3 711708391 355083424 355083421 355083423"/>
    </person>
    <person id="ped232" type="ped_pedestrian" depart="1825.03">
        <walk edges="369827665#0 665068147#1 688086638 711708399#1 675445993#1 675445997 675445995#0 675172195 711708396#1 711708389#3 711708389#2 749621680 749621679#0 749621679#1 749621678 722094931#1 909949880#3 909949880#2 665068135#3 665068135#2 665068135#1 238969210 167048050 295122031#1 295122031#2 295122031#3 850328349#1 561497026#2 37935481#4 37935481#5 37935481#6 37935481#7 22761597#0 775216094 -492438272"/>
    </person>
    <person id="ped235" type="ped_pedestrian" depart="1848.63">
        <walk edges="195513140#0 665068147#1 369827665#0"/>
    </person>
    <person id="ped236" type="ped_pedestrian" depart="1856.50">
        <walk edges="195513140#2 369829204#1 355084527 632555219 22738847 245317925#0 1015988488#2"/>
    </person>
    <person id="ped238" type="ped_pedestrian" depart="1872.23">
        <walk edges="37935481#4 37935481#3 37935481#2 37935481#1 -580395205#0 580395205#0"/>
    </person>
    <person id="ped239" type="ped_pedestrian" depart="1880.10">
        <walk edges="711708400#2 195513140#0 665068147#1"/>
    </person>
    <person id="ped242" type="ped_pedestrian" depart="1903.70">
        <walk edges="711708400#1 675445993#1 675445997 675445995#0 675172195 711708396#1 711708389#3 711708391 355083424 355083421 355083423 238197666 878862912 878862911#1 878865705 878862905#0"/>
    </person>
    <person id="ped244" type="ped_pedestrian" depart="1919.43">
        <walk edges="369827665#1 -678960768#1 -369829204#0 -369829204#1 -355084529 -355084526 -700820552 -245317925#0 1015988488#1 1015988488#0 711708389#1 749621680 749621679#0 749621679#1 749621678 722094931#1 909949880#3 909949880#2 665068135#3" busStop="1723298719"/> <!-- F.B. Harrison -->
        <walk edges="37935905"/>
    </person>
    <person id="ped247" type="ped_pedestrian" depart="1943.03">
        <walk edges="156780851 1074940676 849516786 849616388 749621679#1 749621678 722094931#1 909949880#3 909949880#2 665068135#3 665068135#2 665068135#1 238969210 167048050 295122031#0 576201872 576201873 576201869 1192230684 576201865 576201871"/>
    </person>
    <person id="ped248" type="ped_pedestrian" depart="1950.90">
        <walk edges="167048240#1" busStop="11061344311"/> <!-- Pasay City Terminal -->
        <walk edges="37927947#1 149828221#1 149828221#0" busStop="1723298719"/> <!-- F.B. Harrison -->
        <walk edges="665068135#3 909949880#2 909949880#3 722094931#1 749621678 749621679#1 749621679#0 749621680 711708389#1 1015988488#0 1015988488#1 -245317925#0 -700820552 -355084526 -355084529 -369829204#1 195513140#1 -665068147#0"/>
    </person>
    <person id="ped254" type="ped_pedestrian" depart="1998.10">
        <walk edges="-166104882 166104882"/>
    </person>
    <person id="ped257" type="ped_pedestrian" depart="2021.70">
        <walk edges="665068135#0 665068135#1 665068135#2 665068135#3 909949880#2 909949880#3 722094931#1 749621678 749621679#1 749621679#0 749621680 711708389#2 711708389#3 711708397#0 711708392"/>
    </person>
    <person id="ped265" type="ped_pedestrian" depart="2084.63">
        <walk edges="-369829204#1 -355084529 -355084526 -700820552 -245317925#0 1015988488#1 1015988488#0 711708389#1 749621680 749621679#0 749621679#1 749621678 722094931#1 909949880#3 909949880#2 665068135#3 665068135#2 665068135#1 238969210 167048050 295122031#0 576201872 576201873 576201869"/>
    </person>
    <person id="ped266" type="ped_pedestrian" depart="2092.50">
        <walk edges="37935475#0 561497026#1 561497026#2 850328349#1 295122031#3 295122031#2 295122031#1 167048050 238969210 665068135#1 665068135#2 665068135#3 909949880#2 909949880#3 722094931#1 749621678 749621679#1 749621679#0 749621680 711708389#1 1018918359"/>
    </person>
    <person id="ped269" type="ped_pedestrian" depart="2116.09">
        <walk edges="665068127 1192230683 561497026#4 561497026#3 850328349#1 295122031#3 295122031#2 295122031#1 167048050 238969210 665068135#1 665068135#2 665068135#3 909949880#2 909949880#3 722094931#1 749621678 749621679#1 749621679#0 749621680 711708389#1 1015988488#0 1015988488#1 -245317925#0 -700820552 -355084526"/>
    </person>
    <person id="ped270" type="ped_pedestrian" depart="2123.96">
        <walk edges="711708389#1 711708389#2 711708391 355083424 355083421 355083423 238197666 878862912 878862911#1 878862911#0"/>
    </person>
    <person id="ped275" type="ped_pedestrian" depart="2163.29">
        <walk edges="580387541 576201870#0 576201870#1 561497026#3 561497026#2 561497026#1 561497026#0"/>
    </person>
    <person id="ped277" type="ped_pedestrian" depart="2179.03">