<?xml version="1.0" encoding="UTF-8"?>

<!-- generated on 2024-03-25 16:01:43 by Eclipse SUMO netconvert Version 1.19.0
<configuration xmlns:xsi="http://www.w3.org/2001/XMLSchema-instance" xsi:noNamespaceSchemaLocation="http://sumo.dlr.de/xsd/netconvertConfiguration.xsd">

    <input>
        <type-files value="${SUMO_HOME}/data/typemap/osmNetconvert.typ.xml,${SUMO_HOME}/data/typemap/osmNetconvertUrbanDe.typ.xml,${SUMO_HOME}/data/typemap/osmNetconvertPedestrians.typ.xml,${SUMO_HOME}/data/typemap/osmNetconvertBicycle.typ.xml,${SUMO_HOME}/data/typemap/osmNetconvertAerialway.typ.xml"/>
        <osm-files value="osm_bbox.osm.xml.gz"/>
    </input>

    <output>
        <output-file value="osm.net.xml.gz"/>
        <output.street-names value="true"/>
        <output.original-names value="true"/>
        <ptstop-output value="osm_stops.add.xml"/>
        <ptline-output value="osm_ptlines.xml"/>
    </output>

    <projection>
        <proj.utm value="true"/>
    </projection>

    <processing>
        <geometry.remove value="true"/>
        <roundabouts.guess value="true"/>
    </processing>

    <tls_building>
        <tls.discard-simple value="true"/>
        <tls.join value="true"/>
        <tls.guess-signals value="true"/>
        <tls.default-type value="actuated"/>
    </tls_building>

    <ramp_guessing>
        <ramps.guess value="true"/>
    </ramp_guessing>

    <junctions>
        <junctions.join value="true"/>
        <junctions.corner-detail value="5"/>
    </junctions>

    <pedestrian>
        <crossings.guess value="true"/>
    </pedestrian>

    <railway>
        <railway.topology.repair value="true"/>
    </railway>

    <formats>
        <osm.bike-access value="true"/>
        <osm.sidewalks value="true"/>
    </formats>

</configuration>
-->

<additional xmlns:xsi="http://www.w3.org/2001/XMLSchema-instance" xsi:noNamespaceSchemaLocation="http://sumo.dlr.de/xsd/additional_file.xsd">
    <busStop id="11061344311" name="Pasay City Terminal" lane="667228840#1_0" startPos="60.89" endPos="75.89" friendlyPos="true">
        <access lane="1192229717_0" pos="0.00" length="70.29" friendlyPos="1"/>
        <access lane="1192229718_0" pos="0.00" length="76.94" friendlyPos="1"/>
        <access lane="167048240#1_0" pos="57.02" length="40.28" friendlyPos="1"/>
        <access lane="37927947#1_0" pos="68.58" length="4.97" friendlyPos="1"/>
        <access lane="665068135#2_0" pos="51.23" length="75.36" friendlyPos="1"/>
    </busStop>
    <busStop id="1690194021" name="EDSA-Roxas Boulevard (southbound)" lane="156780851_0" startPos="12.20" endPos="37.20" friendlyPos="true"/>
    <busStop id="1723298719" name="F.B. Harrison" lane="644875508_0" startPos="88.13" endPos="103.13" friendlyPos="true">
        <access lane="149828221#0_0" pos="0.00" length="56.64" friendlyPos="1"/>
        <access lane="149828221#1_0" pos="0.00" length="116.54" friendlyPos="1"/>
        <access lane="30260120_0" pos="0.00" length="97.35" friendlyPos="1"/>
        <access lane="37935905_0" pos="0.00" length="100.09" friendlyPos="1"/>
        <access lane="665068135#3_0" pos="107.52" length="51.11" friendlyPos="1"/>
    </busStop>
    <busStop id="3611904143" name="EDSA-Taft Interchange (southbound)" lane="167048240#0_0" startPos="0.00" endPos="6.42" friendlyPos="true"/>
    <busStop id="6225038971" name="EDSA-Taft Interchange (northbound)" lane="167048240#1_0" startPos="69.73" endPos="94.73" friendlyPos="true"/>
    <busStop id="9398002675" name="Double Dragon Plaza" lane="1018918359_0" startPos="0.00" endPos="25.00" friendlyPos="true"/>
    <busStop id="9859138541" name="EDSA-Roxas Boulevard (northbound" lane="156780851_0" startPos="66.22" endPos="91.22" friendlyPos="true"/>
</additional>
