<?xml version="1.0" encoding="UTF-8"?>

<!-- generated on 2024-04-03 12:27:56 by Eclipse SUMO netedit Version 1.19.0
-->

<additional xmlns:xsi="http://www.w3.org/2001/XMLSchema-instance" xsi:noNamespaceSchemaLocation="http://sumo.dlr.de/xsd/additional_file.xsd">
    <!-- StoppingPlaces -->
    <busStop id="11061344311" name="Pasay City Terminal" lane="667228840#1_0" startPos="60.89" endPos="75.89" friendlyPos="true">
        <access lane="1192229717_0" pos="0.00" length="70.29" friendlyPos="1"/>
        <access lane="1192229718_0" pos="0.00" length="76.94" friendlyPos="1"/>
        <access lane="167048240#1_0" pos="57.02" length="40.28" friendlyPos="1"/>
        <access lane="37927947#1_0" pos="68.58" length="4.97" friendlyPos="1"/>
        <access lane="665068135#2_0" pos="51.23" length="75.36" friendlyPos="1"/>
    </busStop>
    <busStop id="1690194021" name="EDSA-Roxas Boulevard (southbound)" lane="156780851_0" startPos="12.20" endPos="37.20" friendlyPos="true"/>
    <busStop id="1723298719" name="F.B. Harrison" lane="644875508_0" startPos="88.13" endPos="103.13" friendlyPos="true">
        <access lane="149828221#0_0" pos="0.00" length="56.64" friendlyPos="1"/>
        <access lane="149828221#1_0" pos="0.00" length="116.54" friendlyPos="1"/>
        <access lane="30260120_0" pos="0.00" length="97.35" friendlyPos="1"/>
        <access lane="37935905_0" pos="0.00" length="100.09" friendlyPos="1"/>
        <access lane="665068135#3_0" pos="107.52" length="51.11" friendlyPos="1"/>
    </busStop>
    <busStop id="3611904143" name="EDSA-Taft Interchange (southbound)" lane="167048240#0_0" startPos="0.00" endPos="6.42" friendlyPos="true"/>
    <busStop id="6225038971" name="EDSA-Taft Interchange (northbound)" lane="167048240#1_0" startPos="69.73" endPos="94.73" friendlyPos="true"/>
    <busStop id="9398002675" name="Double Dragon Plaza" lane="1018918359_0" startPos="0.00" endPos="25.00" friendlyPos="true"/>
    <busStop id="9859138541" name="EDSA-Roxas Boulevard (northbound" lane="156780851_0" startPos="66.22" endPos="91.22" friendlyPos="true"/>
    <busStop id="bs_0" lane="621030728_0" startPos="185.48" endPos="195.48"/>
    <busStop id="bs_1" lane="245238968_1" startPos="44.64" endPos="54.64"/>
    <busStop id="bs_2" lane="245238968_1" startPos="316.71" endPos="326.71"/>
    <busStop id="bs_3" lane="355084527_1" startPos="332.61" endPos="342.61"/>
    <busStop id="bs_4" lane="22738847_2" startPos="263.72" endPos="273.72" friendlyPos="true"/>
    <busStop id="bs_5" lane="665068136#1_1" startPos="19.68" endPos="29.68" friendlyPos="true"/>
    <!-- Shapes -->
    <poly id="1010139607" type="building.yes" color="255,230,230" fill="1" layer="-1.00" shape="987.945217,2684.688387 1004.995373,2687.913857 1009.501606,2658.502888 989.640781,2656.840414 987.945217,2684.688387"/>
    <poly id="1010139608" type="building.yes" color="255,230,230" fill="1" layer="-1.00" shape="990.957057,2653.287457 999.910681,2653.983412 1000.802692,2645.088910 992.148355,2644.102585 990.957057,2653.287457"/>
    <poly id="1010139609" type="building.yes" color="255,230,230" fill="1" layer="-1.00" shape="991.737554,2642.744978 993.223300,2633.944856 1021.661799,2638.907307 1019.612523,2648.597726 991.737554,2642.744978"/>
    <poly id="1010139616" type="building.yes" color="255,230,230" fill="1" layer="-1.00" shape="1656.944609,2733.617854 1660.061355,2733.767602 1660.348102,2725.896605 1656.813487,2726.038257 1656.944609,2733.617854"/>
    <poly id="1010139617" type="building.yes" color="255,230,230" fill="1" layer="-1.00" shape="1649.775252,2734.776312 1651.194710,2724.538161 1655.708477,2725.417136 1654.981130,2734.675343 1649.775252,2734.776312"/>
    <poly id="1010139618" type="building.yes" color="255,230,230" fill="1" layer="-1.00" shape="1644.083156,2733.520330 1644.954013,2725.876614 1650.509690,2725.097505 1649.401580,2733.960646 1644.083156,2733.520330"/>
    <poly id="1010139619" type="building.yes" color="255,230,230" fill="1" layer="-1.00" shape="1627.252283,2671.671752 1627.480362,2664.487409 1636.499006,2663.998877 1636.398130,2672.167048 1627.252283,2671.671752"/>
    <poly id="1010139620" type="building.yes" color="255,230,230" fill="1" layer="-1.00" shape="1626.506315,2678.805301 1631.373769,2679.448770 1632.536917,2673.174774 1627.084277,2672.182297 1626.506315,2678.805301"/>
    <poly id="1010139621" type="building.yes" color="255,230,230" fill="1" layer="-1.00" shape="1593.443554,2566.889030 1593.221947,2555.138047 1602.188288,2554.827034 1602.203617,2556.575452 1599.800415,2556.662922 1599.575131,2566.625004 1593.443554,2566.889030"/>
    <poly id="1010386971" type="building.yes" color="255,230,230" fill="1" layer="-1.00" shape="1395.456280,2718.049596 1440.178183,2718.752753 1440.692296,2708.544656 1396.298122,2708.336625 1395.456280,2718.049596"/>
    <poly id="1010386972" type="building.yes" color="255,230,230" fill="1" layer="-1.00" shape="1376.638839,2723.482550 1390.967655,2724.950407 1392.279215,2712.256343 1377.961268,2710.799456 1376.638839,2723.482550"/>
    <poly id="1010386973" type="building.yes" color="255,230,230" fill="1" layer="-1.00" shape="1498.479021,2518.684860 1506.713665,2514.838859 1497.644388,2489.896390 1487.124344,2488.826649 1486.660872,2502.354334 1491.689298,2499.222593 1498.479021,2518.684860"/>
    <poly id="1010386974" type="building.yes" color="255,230,230" fill="1" layer="-1.00" shape="1480.281585,2517.394728 1487.071497,2515.985020 1486.893920,2506.801140 1480.966162,2506.952737 1480.281585,2517.394728"/>
    <poly id="1010386975" type="building.yes" color="255,230,230" fill="1" layer="-1.00" shape="1479.004911,2505.807928 1485.618372,2505.174444 1485.957217,2499.560608 1479.049412,2499.820403 1479.004911,2505.807928"/>
    <poly id="1010386976" type="building.yes" color="255,230,230" fill="1" layer="-1.00" shape="1480.274457,2527.642640 1479.543622,2521.750450 1487.014280,2520.522907 1487.940015,2526.512988 1480.274457,2527.642640"/>
    <poly id="1010386977" type="building.yes" color="255,230,230" fill="1" layer="-1.00" shape="1471.500817,2514.284516 1477.720488,2514.229957 1478.924011,2507.645725 1472.601402,2507.026112 1471.500817,2514.284516"/>
    <poly id="1010386978" type="building.yes" color="255,230,230" fill="1" layer="-1.00" shape="1467.266483,2408.855125 1467.316328,2402.247813 1475.824750,2402.571586 1475.297602,2408.840014 1467.266483,2408.855125"/>
    <poly id="1010386979" type="building.yes" color="255,230,230" fill="1" layer="-1.00" shape="1457.698366,2413.078036 1457.626242,2404.856042 1463.290175,2404.120217 1464.119377,2412.623307 1457.698366,2413.078036"/>
    <poly id="1010386980" type="building.yes" color="255,230,230" fill="1" layer="-1.00" shape="1436.576223,2417.568314 1433.399467,2398.295695 1439.066411,2397.902908 1442.933528,2417.224806 1436.576223,2417.568314"/>
    <poly id="1010386981" type="building.yes" color="255,230,230" fill="1" layer="-1.00" shape="1426.938599,2413.868023 1434.852798,2412.813646 1425.235658,2370.899533 1417.214814,2373.316063 1426.938599,2413.868023"/>
    <poly id="1010386982" type="building.yes" color="255,230,230" fill="1" layer="-1.00" shape="1379.745820,2556.700739 1400.611073,2559.804471 1405.420209,2543.969950 1383.556740,2536.448252 1379.745820,2556.700739"/>
    <poly id="1010386983" type="building.yes" color="255,230,230" fill="1" layer="-1.00" shape="1382.459838,2650.988185 1390.388916,2652.866353 1392.151469,2646.111204 1383.849971,2644.789643 1382.459838,2650.988185"/>
    <poly id="1010391004" type="building.yes" color="255,230,230" fill="1" layer="-1.00" shape="1479.606010,2462.498297 1495.385617,2462.204956 1492.149262,2447.193573 1478.919974,2449.423367 1479.606010,2462.498297"/>
    <poly id="1010391005" type="building.yes" color="255,230,230" fill="1" layer="-1.00" shape="1486.254513,2446.193931 1498.007032,2443.977093 1494.598262,2437.577185 1484.157226,2440.601463 1486.254513,2446.193931"/>
    <poly id="1010391006" type="building.yes" color="255,230,230" fill="1" layer="-1.00" shape="1470.962601,2521.748256 1476.757504,2522.427831 1477.414391,2514.974117 1471.251140,2515.315918 1470.962601,2521.748256"/>
    <poly id="1010391007" type="building.yes" color="255,230,230" fill="1" layer="-1.00" shape="1398.765679,2246.287251 1412.410910,2244.762054 1411.224320,2236.073964 1400.146244,2237.764773 1398.765679,2246.287251"/>
    <poly id="1010391008" type="building.yes" color="255,230,230" fill="1" layer="-1.00" shape="1410.287229,2257.053761 1409.456840,2250.874708 1406.087342,2250.184927 1406.936015,2246.160235 1397.167114,2247.164486 1395.707591,2258.974495 1410.287229,2257.053761"/>
    <poly id="1010391009" type="building.yes" color="255,230,230" fill="1" layer="-1.00" shape="1407.452739,2249.763477 1416.010746,2249.588796 1415.526850,2244.812186 1407.320968,2245.802721 1407.452739,2249.763477"/>
    <poly id="1010391010" type="building.yes" color="255,230,230" fill="1" layer="-1.00" shape="1093.949870,710.146027 1101.145078,709.407799 1099.763945,685.936172 1091.788382,686.205376 1093.949870,710.146027"/>
    <poly id="1010391011" type="building.yes" color="255,230,230" fill="1" layer="-1.00" shape="1082.373748,710.446838 1090.350178,710.277224 1089.570392,687.763129 1080.817785,687.939555 1082.373748,710.446838"/>
    <poly id="1010391021" type="building.yes" color="255,230,230" fill="1" layer="-1.00" shape="803.470668,1861.909535 804.479555,1845.466420 827.286924,1847.445996 826.387862,1864.120545 803.470668,1861.909535"/>
    <poly id="1010391022" type="building.yes" color="255,230,230" fill="1" layer="-1.00" shape="1233.470884,1328.761909 1245.055541,1329.468132 1245.707497,1318.993222 1234.122737,1318.275932 1233.470884,1328.761909"/>
    <poly id="1010391023" type="building.yes" color="255,230,230" fill="1" layer="-1.00" shape="1405.602745,1453.789688 1411.907073,1454.752552 1415.173717,1444.929802 1409.708184,1442.498766 1405.602745,1453.789688"/>
    <poly id="1010391024" type="building.yes" color="255,230,230" fill="1" layer="-1.00" shape="1410.039155,1442.130660 1416.433498,1444.752754 1417.979036,1439.050874 1411.092702,1436.875764 1410.039155,1442.130660"/>
    <poly id="1010391025" type="building.yes" color="255,230,230" fill="1" layer="-1.00" shape="1409.638686,1424.737182 1416.433555,1425.087073 1416.685343,1416.917577 1409.732656,1417.011740 1409.638686,1424.737182"/>
    <poly id="1010391026" type="building.yes" color="255,230,230" fill="1" layer="-1.00" shape="1408.048283,1430.240254 1414.141687,1430.507761 1414.798906,1425.544078 1408.206427,1424.915742 1408.048283,1430.240254"/>
    <poly id="1011176992" type="building.yes" color="255,230,230" fill="1" layer="-1.00" shape="1141.730015,2690.341970 1154.898638,2694.719394 1158.754293,2683.264566 1145.585666,2678.887139 1141.730015,2690.341970"/>
    <poly id="1011176993" type="building.yes" color="255,230,230" fill="1" layer="-1.00" shape="1105.782471,2703.074820 1127.823207,2707.462796 1135.808964,2670.396260 1111.169599,2664.714157 1105.782471,2703.074820"/>
    <poly id="1011176994" type="building.yes" color="255,230,230" fill="1" layer="-1.00" shape="995.348343,2718.698048 1009.471263,2721.263112 1015.233081,2694.884481 1000.109308,2691.287930 995.348343,2718.698048"/>
    <poly id="1011176997" type="building.yes" color="255,230,230" fill="1" layer="-1.00" shape="1028.801633,2365.803939 1052.159202,2367.889485 1052.935795,2359.350144 1029.578024,2357.242464 1028.801633,2365.803939"/>
    <poly id="1011176998" type="building.yes" color="255,230,230" fill="1" layer="-1.00" shape="1013.861176,2359.782107 1022.248458,2361.036404 1026.681899,2317.194965 1018.085142,2316.639716 1013.861176,2359.782107"/>
    <poly id="1011176999" type="building.yes" color="255,230,230" fill="1" layer="-1.00" shape="1023.651838,2355.125454 1033.093558,2356.149151 1034.550546,2342.845095 1025.108919,2341.832464 1023.651838,2355.125454"/>
    <poly id="1011177000" type="building.yes" color="255,230,230" fill="1" layer="-1.00" shape="1025.982619,2340.662769 1034.097892,2341.631724 1036.321149,2317.386918 1028.356781,2316.416634 1025.982619,2340.662769"/>
    <poly id="1011177001" type="building.yes" color="255,230,230" fill="1" layer="-1.00" shape="1306.342257,2384.603317 1314.345518,2383.869057 1313.659109,2371.989337 1305.324208,2373.014245 1306.342257,2384.603317"/>
    <poly id="1011178206" type="building.yes" color="255,230,230" fill="1" layer="-1.00" shape="940.919329,2342.318038 947.738936,2343.054887 949.197033,2334.786216 941.643741,2333.978349 940.919329,2342.318038"/>
    <poly id="1011178207" type="building.yes" color="255,230,230" fill="1" layer="-1.00" shape="1142.017628,1801.408891 1148.770650,1801.913997 1149.527021,1792.290300 1142.763120,1791.774222 1142.017628,1801.408891"/>
    <poly id="1011178208" type="building.yes" color="255,230,230" fill="1" layer="-1.00" shape="1135.255011,1820.680256 1144.897168,1821.182122 1146.853141,1803.303120 1136.037063,1802.933295 1135.255011,1820.680256"/>
    <poly id="1011178209" type="building.yes" color="255,230,230" fill="1" layer="-1.00" shape="1126.485608,1818.898045 1134.480423,1819.635711 1135.099233,1802.941531 1127.808102,1802.540755 1126.485608,1818.898045"/>
    <poly id="1011178210" type="building.yes" color="255,230,230" fill="1" layer="-1.00" shape="1159.642179,1822.103991 1171.637407,1822.939344 1171.945428,1817.502838 1159.830650,1816.557866 1159.642179,1822.103991"/>
    <poly id="1011178211" type="building.yes" color="255,230,230" fill="1" layer="-1.00" shape="1154.920013,1822.067988 1158.890033,1822.387265 1159.289439,1817.536497 1155.319418,1817.217220 1154.920013,1822.067988"/>
    <poly id="1011178212" type="building.yes" color="255,230,230" fill="1" layer="-1.00" shape="1161.623138,1827.940937 1170.895965,1828.125119 1170.995194,1823.465122 1161.722269,1823.269874 1161.623138,1827.940937"/>
    <poly id="1011178213" type="building.yes" color="255,230,230" fill="1" layer="-1.00" shape="1154.466717,1828.147646 1160.742997,1828.380271 1160.987601,1823.088189 1154.710250,1822.733839 1154.466717,1828.147646"/>
    <poly id="1011178214" type="building.yes" color="255,230,230" fill="1" layer="-1.00" shape="1171.675710,1853.084986 1178.480185,1853.312977 1178.995632,1845.716623 1171.899036,1845.369462 1171.675710,1853.084986"/>
    <poly id="1011178215" type="building.yes" color="255,230,230" fill="1" layer="-1.00" shape="1271.931410,1813.482159 1282.017274,1814.179388 1282.709503,1803.383185 1271.938399,1803.223175 1271.931410,1813.482159"/>
    <poly id="1011178216" type="building.yes" color="255,230,230" fill="1" layer="-1.00" shape="1259.465871,1819.246698 1259.862870,1815.347700 1262.874470,1815.786074 1262.913318,1818.984038 1259.465871,1819.246698"/>
    <poly id="1011178217" type="building.commercial" color="255,230,230" fill="1" layer="-1.00" shape="1288.244897,1816.238495 1288.906150,1804.369084 1302.588534,1804.592089 1302.384777,1816.999756 1288.244897,1816.238495"/>
    <poly id="1011178218" type="building.yes" color="255,230,230" fill="1" layer="-1.00" shape="1387.575310,1730.108449 1404.524259,1730.336065 1404.586864,1719.036323 1387.547787,1718.366825 1387.575310,1730.108449"/>
    <poly id="1011178219" type="building.yes" color="255,230,230" fill="1" layer="-1.00" shape="1425.842247,1719.834860 1430.706995,1718.917923 1430.581038,1704.554336 1426.236825,1704.592432 1425.842247,1719.834860"/>
    <poly id="1011178223" type="building.yes" color="255,230,230" fill="1" layer="-1.00" shape="1653.283463,2703.338027 1677.239768,2703.681381 1677.372717,2694.251318 1653.427085,2693.896802 1653.283463,2703.338027"/>
    <poly id="1011178224" type="building.yes" color="255,230,230" fill="1" layer="-1.00" shape="1637.281745,2702.869628 1652.017831,2702.840050 1652.006845,2694.208055 1637.270753,2694.237632 1637.281745,2702.869628"/>
    <poly id="1011178225" type="building.yes" color="255,230,230" fill="1" layer="-1.00" shape="1632.077315,2703.136588 1636.271795,2703.254752 1636.473563,2695.528368 1632.279179,2695.421270 1632.077315,2703.136588"/>
    <poly id="1011178226" type="building.yes" color="255,230,230" fill="1" layer="-1.00" shape="1603.006715,2699.816886 1623.522417,2699.957953 1623.809014,2685.922757 1602.803956,2686.527453 1603.006715,2699.816886"/>
    <poly id="1011178227" type="building.yes" color="255,230,230" fill="1" layer="-1.00" shape="1619.733293,2709.187671 1623.388132,2709.233096 1623.488420,2700.998529 1619.833580,2700.953104 1619.733293,2709.187671"/>
    <poly id="1011178228" type="building.yes" color="255,230,230" fill="1" layer="-1.00" shape="1631.316247,2704.858612 1631.517539,2695.848485 1626.439160,2695.738071 1626.112842,2710.160952 1650.426507,2710.689282 1650.540761,2705.276623 1631.316247,2704.858612"/>
    <poly id="1011178229" type="building.yes" color="255,230,230" fill="1" layer="-1.00" shape="1625.198754,2720.250807 1631.346600,2720.617447 1632.018675,2712.433201 1625.127157,2712.084147 1625.198754,2720.250807"/>
    <poly id="1011178230" type="building.yes" color="255,230,230" fill="1" layer="-1.00" shape="1651.918491,2712.413688 1658.800587,2712.917767 1659.409451,2704.900079 1652.516477,2704.385028 1651.918491,2712.413688"/>
    <poly id="1011178231" type="building.yes" color="255,230,230" fill="1" layer="-1.00" shape="1659.924549,2712.011505 1665.585972,2712.227483 1665.876311,2704.765927 1660.214886,2704.549949 1659.924549,2712.011505"/>
    <poly id="1011178232" type="building.yes" color="255,230,230" fill="1" layer="-1.00" shape="1666.650387,2713.136696 1675.645210,2713.622261 1676.091906,2705.550662 1667.097080,2705.065096 1666.650387,2713.136696"/>
    <poly id="101219008" type="amenity.fuel" color="237,199,199" fill="1" layer="-1.00" shape="1519.511721,2630.606978 1572.638224,2624.707278 1571.976669,2658.677051 1519.760676,2658.991114 1519.511721,2630.606978"/>
    <poly id="101219008#1" type="landuse.retail" color="194,194,130" fill="1" layer="-3.00" shape="1519.511721,2630.606978 1572.638224,2624.707278 1571.976669,2658.677051 1519.760676,2658.991114 1519.511721,2630.606978"/>
    <poly id="1015988496" type="building.yes" color="255,230,230" fill="1" layer="-1.00" shape="773.268497,543.208848 772.223861,518.804627 752.857407,519.616725 753.891282,544.021043 773.268497,543.208848"/>
    <poly id="1015988497" type="building.yes" color="255,230,230" fill="1" layer="-1.00" shape="724.025819,618.608360 751.061296,618.226819 750.827292,601.418375 723.791797,601.799914 724.025819,618.608360"/>
    <poly id="1017667815" type="population.4336" color="51,128,255" fill="0" layer="-1.00" shape="1683.415156,2141.302089 1682.457189,2185.765724"/>
    <poly id="1018918355" type="building.yes" color="255,230,230" fill="1" layer="-1.00" shape="785.989531,2448.162771 794.142858,2370.147309 727.192994,2352.498331 720.495574,2382.791883 729.504478,2387.305327 739.117606,2395.554048 747.305278,2405.973350 751.431022,2415.421319 754.180146,2426.463962 752.951536,2439.976317 785.989531,2448.162771"/>
    <poly id="1018918357" type="building.commercial" color="255,230,230" fill="1" layer="-1.00" shape="740.469672,2500.179106 783.795526,2510.001423 788.442220,2465.947726 750.322773,2457.307987 740.469672,2500.179106"/>
    <poly id="102944060" type="amenity.fast_food" color="237,199,199" fill="1" layer="-1.00" shape="968.356680,434.501058 969.413490,446.809133 950.054186,448.439948 949.526213,442.335707 948.997366,436.131873 968.356680,434.501058"/>
    <poly id="102944060#1" type="building.retail" color="255,230,230" fill="1" layer="-1.00" shape="968.356680,434.501058 969.413490,446.809133 950.054186,448.439948 949.526213,442.335707 948.997366,436.131873 968.356680,434.501058"/>
    <poly id="102944062" type="building.apartments" color="255,230,230" fill="1" layer="-1.00" shape="953.616934,526.352186 951.408057,526.493319 950.210662,506.771716 952.419639,506.641649 998.775323,503.855245 999.972678,523.576845 953.616934,526.352186"/>
    <poly id="1037322145" type="building.yes" color="255,230,230" fill="1" layer="-1.00" shape="834.148859,2055.231747 837.122790,2026.874509 810.212047,2024.101029 807.238146,2052.458275 834.148859,2055.231747"/>
    <poly id="1037322146" type="building.yes" color="255,230,230" fill="1" layer="-1.00" shape="837.739833,2021.036863 840.832039,1991.416969 816.413778,1988.898227 813.321601,2018.518128 837.739833,2021.036863"/>
    <poly id="1037322147" type="building.construction" color="255,230,230" fill="1" layer="-1.00" shape="753.359527,1936.265717 747.333463,1993.877337 777.168446,1996.957033 780.003000,1969.917960 806.201674,1972.620211 809.404160,1942.058659 753.359527,1936.265717"/>
    <poly id="1037322148" type="building.yes" color="255,230,230" fill="1" layer="-1.00" shape="818.694558,1943.017226 815.492061,1973.578775 814.299055,1985.021304 841.209936,1987.805859 845.616263,1945.801697 818.694558,1943.017226"/>
    <poly id="1037344725" type="building.industrial" color="255,230,230" fill="1" layer="-1.00" shape="1739.200181,1705.203165 1759.358155,1705.026656 1759.285390,1696.716151 1739.127312,1696.881593 1739.200181,1705.203165"/>
    <poly id="1037344726" type="building.industrial" color="255,230,230" fill="1" layer="-1.00" shape="1709.206689,1704.956754 1736.302388,1705.449875 1736.587134,1689.953905 1709.491321,1689.449716 1709.206689,1704.956754"/>
    <poly id="1063059586" type="building.residential" color="255,230,230" fill="1" layer="-1.00" shape="978.220409,1115.698236 1016.899717,1116.675449 1016.385031,1136.633426 1002.571824,1136.289943 1002.027251,1157.753271 977.161301,1157.130615 978.220409,1115.698236"/>
    <poly id="1063059587" type="building.residential" color="255,230,230" fill="1" layer="-1.00" shape="1367.216123,1129.603816 1366.086262,1105.255725 1307.374844,1107.795822 1304.685058,1044.495239 1395.872941,1038.781989 1398.104531,1086.736935 1381.023926,1087.528560 1382.949692,1128.879321 1367.216123,1129.603816"/>
    <poly id="1063059588" type="building.construction" color="255,230,230" fill="1" layer="-1.00" shape="1227.389110,554.416359 1225.505490,536.327611 1192.760836,539.713534 1194.655260,557.802188 1227.389110,554.416359"/>
    <poly id="1063059589" type="building.residential" color="255,230,230" fill="1" layer="-1.00" shape="978.571473,1161.799489 1020.270649,1162.927239 1019.623037,1186.162160 977.923803,1185.023350 978.571473,1161.799489"/>
    <poly id="1063059593" type="building.apartments" color="255,230,230" fill="1" layer="-1.00" shape="1438.897152,481.269978 1457.593614,470.437797 1430.516690,424.260973 1411.820101,435.082105 1438.897152,481.269978"/>
    <poly id="1063059594" type="building.residential" color="255,230,230" fill="1" layer="-1.00" shape="1118.621905,2381.670203 1058.591215,2376.044538 1064.532341,2320.979180 1124.041105,2328.535088 1118.621905,2381.670203"/>
    <poly id="1063059595" type="building.residential" color="255,230,230" fill="1" layer="-1.00" shape="1017.643437,1116.657851 1015.979420,1157.962730 1038.648489,1158.859254 1040.870308,1103.727041 1026.246448,1103.147190 1025.688693,1116.974532 1017.643437,1116.657851"/>
    <poly id="1063059597" type="building.residential" color="255,230,230" fill="1" layer="-1.00" shape="1002.330832,1596.062770 1007.395398,1527.083091 968.484992,1524.270922 963.431410,1593.261594 1002.330832,1596.062770"/>
    <poly id="1069548621" type="population.33850" color="51,128,255" fill="0" layer="-1.00" shape="-599.590110,1118.076926 -540.385805,1123.673141 -409.359423,1136.569405 -395.159490,1137.960037 -283.620573,1148.937585 -242.833463,1152.948660 14.750785,1178.297425 667.230303,1242.369449 758.824512,1251.048085 783.705993,1254.669481 790.588738,1255.195504 878.273932,1261.939048 921.333110,1265.721757"/>
    <poly id="1077804815" type="population.794" color="51,128,255" fill="0" layer="-1.00" shape="1666.999570,2596.777489 1675.197849,2596.163363"/>
    <poly id="109231437" type="landuse.industrial" color="209,209,204" fill="1" layer="-3.00" shape="1754.960627,2496.582787 1758.526589,2506.168575 1764.110822,2520.949134 1759.748585,2534.909351 1762.408339,2535.804593 1766.614186,2537.217496 1768.620103,2531.157465 1779.616677,2534.945573 1780.730435,2535.334221 1787.893231,2517.420773 1758.047472,2460.090723 1751.116924,2461.446249 1723.101452,2365.720610 1723.557699,2351.351938 1674.408746,2352.358052 1667.557395,2362.754463 1699.011859,2388.341897 1710.927978,2383.877178 1717.997176,2413.108999 1710.468189,2416.295797 1702.434721,2425.883615 1713.379142,2448.319678 1714.252134,2458.139327 1724.759577,2477.458390 1724.476382,2485.738820 1754.960627,2496.582787"/>
    <poly id="1096518795" type="population.677" color="51,128,255" fill="0" layer="-1.00" shape="1482.799737,2412.426252 1467.093335,2543.960052"/>
    <poly id="1102153868" type="building.yes" color="255,230,230" fill="1" layer="-1.00" shape="1281.589858,1158.486564 1282.076063,1148.776722 1293.562519,1149.339972 1293.087090,1159.049719 1281.589858,1158.486564"/>
    <poly id="1102158419" type="tourism.motel" color="207,245,201" fill="1" layer="-2.00" shape="1032.766882,2435.501118 1037.673793,2396.469584 1005.898177,2392.078685 1009.066022,2362.469227 1014.870175,2311.455502 1062.559466,2317.289133 1049.592175,2437.655136 1032.766882,2435.501118"/>
    <poly id="110982488" type="building.yes" color="255,230,230" fill="1" layer="-1.00" shape="1606.054566,2657.681042 1605.849691,2630.624548 1607.660608,2630.608671 1607.615204,2625.429813 1647.563563,2625.123876 1647.581605,2627.182140 1653.876697,2627.126960 1653.905008,2631.586625 1655.823814,2631.580873 1656.016994,2657.309449 1606.054566,2657.681042"/>
    <poly id="110983429" type="building.yes" color="255,230,230" fill="1" layer="-1.00" shape="936.588547,2076.575274 938.639048,2048.624587 969.684801,2050.874915 967.634266,2078.825594 936.588547,2076.575274"/>
    <poly id="1119165477" type="building.yes" color="255,230,230" fill="1" layer="-1.00" shape="1104.966736,1326.503433 1104.909677,1313.865643 1113.889604,1313.819999 1113.946658,1326.457789 1104.966736,1326.503433"/>
    <poly id="1119165478" type="building.yes" color="255,230,230" fill="1" layer="-1.00" shape="1094.598737,1326.849006 1094.541576,1314.200148 1103.521600,1314.165567 1103.578660,1326.803358 1094.598737,1326.849006"/>
    <poly id="1119165479" type="building.yes" color="255,230,230" fill="1" layer="-1.00" shape="1084.647169,1326.737187 1084.590099,1314.099395 1093.570027,1314.053744 1093.627092,1326.691535 1084.647169,1326.737187"/>
    <poly id="1119165480" type="building.yes" color="255,230,230" fill="1" layer="-1.00" shape="1093.481724,1350.652447 1094.556818,1334.352668 1103.617735,1334.937117 1102.542635,1351.236894 1093.481724,1350.652447"/>
    <poly id="1119486410" type="building.school" color="255,230,230" fill="1" layer="-1.00" shape="1401.833138,1627.538123 1401.895599,1640.806656 1423.337031,1640.685024 1423.263801,1627.416588 1401.833138,1627.538123"/>
    <poly id="1119486411" type="building.school" color="255,230,230" fill="1" layer="-1.00" shape="1402.398843,1609.682431 1375.572182,1609.154101 1363.319381,1617.063660 1360.574974,1605.301599 1375.041218,1597.782097 1402.142729,1597.688277 1402.398843,1609.682431"/>
    <poly id="1119486412" type="building.school" color="255,230,230" fill="1" layer="-1.00" shape="1402.758867,1606.480971 1415.014448,1606.262828 1414.880095,1598.318052 1402.624510,1598.536195 1402.758867,1606.480971"/>
    <poly id="1119496405" type="building.roof" color="255,230,230" fill="1" layer="-1.00" shape="1679.237395,2167.710821 1689.435449,2167.698938 1689.430184,2142.488869 1679.232022,2142.489684 1679.237395,2167.710821"/>
    <poly id="1119496405#1" type="leisure.sports_hall" color="207,245,201" fill="1" layer="-2.00" shape="1679.237395,2167.710821 1689.435449,2167.698938 1689.430184,2142.488869 1679.232022,2142.489684 1679.237395,2167.710821"/>
    <poly id="1119496405#2" type="sport.multi" color="79,230,125" fill="1" layer="-2.00" shape="1679.237395,2167.710821 1689.435449,2167.698938 1689.430184,2142.488869 1679.232022,2142.489684 1679.237395,2167.710821"/>
    <poly id="1119496406" type="amenity.townhall" color="237,199,199" fill="1" layer="-1.00" shape="1685.405657,2182.696527 1685.497657,2173.510296 1690.089030,2173.392602 1690.295593,2179.743122 1703.631724,2179.847618 1697.991904,2188.263511 1685.405657,2182.696527"/>
    <poly id="1119496406#1" type="building.civic" color="255,230,230" fill="1" layer="-1.00" shape="1685.405657,2182.696527 1685.497657,2173.510296 1690.089030,2173.392602 1690.295593,2179.743122 1703.631724,2179.847618 1697.991904,2188.263511 1685.405657,2182.696527"/>
    <poly id="1119496407" type="building.school" color="255,230,230" fill="1" layer="-1.00" shape="1687.012030,2139.643760 1686.010988,2120.130737 1702.744573,2124.112044 1703.583190,2139.852718 1687.012030,2139.643760"/>
    <poly id="1119496408" type="building.roof" color="255,230,230" fill="1" layer="-1.00" shape="1609.545273,1845.702780 1629.010599,1847.690240 1631.743362,1821.227767 1612.278113,1819.251368 1609.545273,1845.702780"/>
    <poly id="1119496408#1" type="leisure.sports_hall" color="207,245,201" fill="1" layer="-2.00" shape="1609.545273,1845.702780 1629.010599,1847.690240 1631.743362,1821.227767 1612.278113,1819.251368 1609.545273,1845.702780"/>
    <poly id="1119496408#2" type="sport.multi" color="79,230,125" fill="1" layer="-2.00" shape="1609.545273,1845.702780 1629.010599,1847.690240 1631.743362,1821.227767 1612.278113,1819.251368 1609.545273,1845.702780"/>
    <poly id="1119496414" type="man_made.bridge" color="255,230,230" fill="1" layer="-1.00" shape="1616.721809,1765.361492 1620.941692,1765.899990 1625.496133,1766.479825 1630.364479,1731.521492 1625.939582,1730.962654 1621.590143,1730.403156 1616.721809,1765.361492"/>