<?xml version="1.0" encoding="UTF-8"?>

<!-- generated on 2024-04-03 12:28:30 by Eclipse SUMO netedit Version 1.19.0
<configuration xmlns:xsi="http://www.w3.org/2001/XMLSchema-instance" xsi:noNamespaceSchemaLocation="http://sumo.dlr.de/xsd/neteditConfiguration.xsd">

    <input>
        <sumocfg-file value="C:\Users\Gabe Piano\OneDrive\Documents\GitHub\UV-Express-Driver-Behavior-Modeling\Sumo Configs\Baclaran\Baclaran.sumocfg"/>
        <additional-files value="C:\Users\Gabe Piano\OneDrive\Documents\GitHub\UV-Express-Driver-Behavior-Modeling\Sumo Configs\Baclaran\WithStops\Baclaran_Additionals.add.xml"/>
        <route-files value="C:\Users\Gabe Piano\OneDrive\Documents\GitHub\UV-Express-Driver-Behavior-Modeling\Sumo Configs\Baclaran\WithStops\Baclaran_Demand.rou.xml"/>
        <sumo-net-file value="C:\Users\Gabe Piano\OneDrive\Documents\GitHub\UV-Express-Driver-Behavior-Modeling\Sumo Configs\Baclaran\WithStops\Baclaran_withStops.net.xml"/>
    </input>

    <output>
        <output-file value="C:\Users\Gabe Piano\OneDrive\Documents\GitHub\UV-Express-Driver-Behavior-Modeling\Sumo Configs\Baclaran\WithStops\Baclaran_withStops.net.xml"/>
        <output.street-names value="true"/>
    </output>

    <processing>
        <geometry.min-radius.fix.railways value="false"/>
        <geometry.max-grade.fix value="false"/>
        <offset.disable-normalization value="true"/>
        <lefthand value="0"/>
    </processing>

    <junctions>
        <no-internal-links value="false"/>
        <no-turnarounds value="true"/>
        <junctions.corner-detail value="5"/>
        <junctions.limit-turn-speed value="5.50"/>
        <rectangular-lane-cut value="0"/>
    </junctions>

    <pedestrian>
        <walkingareas value="1"/>
    </pedestrian>

</configuration>
-->

<net version="1.16" junctionCornerDetail="5" walkingareas="true" limitTurnSpeed="5.50" xmlns:xsi="http://www.w3.org/2001/XMLSchema-instance" xsi:noNamespaceSchemaLocation="http://sumo.dlr.de/xsd/net_file.xsd">

    <location netOffset="-282849.65,-1605526.06" convBoundary="0.00,0.00,2484.88,2983.19" origBoundary="120.984787,14.514019,121.007812,14.540975" projParameter="+proj=utm +zone=51 +ellps=WGS84 +datum=WGS84 +units=m +no_defs"/>

    <type id="cycleway.lane|highway.trunk" priority="13" numLanes="2" speed="13.89" disallow="pedestrian tram rail_urban rail rail_electric rail_fast ship" oneway="0" bikeLaneWidth="1.25"/>
    <type id="cycleway.lane|highway.trunk_link" priority="8" numLanes="1" speed="13.89" disallow="pedestrian tram rail_urban rail rail_electric rail_fast ship" oneway="0" bikeLaneWidth="1.25"/>
    <type id="highway.cycleway" priority="1" numLanes="1" speed="5.56" allow="bicycle" oneway="0" width="2.00"/>
    <type id="highway.footway" priority="1" numLanes="1" speed="2.78" allow="pedestrian" oneway="1" width="2.00"/>
    <type id="highway.path" priority="1" numLanes="1" speed="5.56" allow="pedestrian bicycle" oneway="0" width="2.00"/>
    <type id="highway.pedestrian" priority="1" numLanes="1" speed="2.78" allow="pedestrian" oneway="1" width="2.00"/>
    <type id="highway.primary" priority="12" numLanes="2" speed="13.89" disallow="pedestrian tram rail_urban rail rail_electric rail_fast ship" oneway="0" sidewalkWidth="3.00"/>
    <type id="highway.residential" priority="3" numLanes="1" speed="13.89" disallow="pedestrian tram rail_urban rail rail_electric rail_fast ship" oneway="0" sidewalkWidth="2.00"/>
    <type id="highway.steps" priority="1" numLanes="1" speed="1.39" allow="pedestrian" oneway="1" width="2.00"/>
    <type id="highway.tertiary" priority="10" numLanes="1" speed="13.89" disallow="pedestrian tram rail_urban rail rail_electric rail_fast ship" oneway="0" sidewalkWidth="3.00"/>
    <type id="highway.track" priority="1" numLanes="1" speed="5.56" allow="pedestrian motorcycle moped bicycle" oneway="0"/>
    <type id="highway.trunk" priority="13" numLanes="2" speed="13.89" disallow="pedestrian bicycle tram rail_urban rail rail_electric rail_fast ship" oneway="0"/>
    <type id="highway.trunk_link" priority="8" numLanes="1" speed="13.89" disallow="pedestrian bicycle tram rail_urban rail rail_electric rail_fast ship" oneway="0"/>

    <edge id=":10009099245_0" function="internal">
        <lane id=":10009099245_0_0" index="0" disallow="pedestrian bicycle tram rail_urban rail rail_electric rail_fast ship" speed="5.63" length="4.44" shape="833.70,2546.30 829.82,2544.15"/>
    </edge>
    <edge id=":10009099245_1" function="internal">
        <lane id=":10009099245_1_0" index="0" disallow="pedestrian bicycle tram rail_urban rail rail_electric rail_fast ship" speed="13.89" length="2.91" shape="833.70,2546.30 834.27,2547.05 834.52,2547.66 834.72,2548.30 835.14,2549.17"/>
        <lane id=":10009099245_1_1" index="1" disallow="pedestrian bicycle tram rail_urban rail rail_electric rail_fast ship" speed="13.89" length="2.91" shape="831.36,2548.49 831.80,2549.09 831.96,2549.59 832.08,2550.12 832.40,2550.82"/>
    </edge>
    <edge id=":10009099245_3" function="internal">
        <lane id=":10009099245_3_0" index="0" disallow="pedestrian bicycle tram rail_urban rail rail_electric rail_fast ship" speed="13.89" length="5.11" shape="826.21,2547.77 827.44,2547.09 828.49,2547.13 829.63,2547.31 831.12,2547.09"/>
    </edge>
    <edge id=":10009099245_4" function="internal">
        <lane id=":10009099245_4_0" index="0" disallow="pedestrian bicycle tram rail_urban rail rail_electric rail_fast ship" speed="6.65" length="7.87" shape="826.21,2547.77 828.79,2546.12 831.14,2545.80 833.26,2546.82 835.14,2549.17"/>
        <lane id=":10009099245_4_1" index="1" disallow="pedestrian bicycle tram rail_urban rail rail_electric rail_fast ship" speed="5.07" length="7.87" shape="828.12,2549.91 829.45,2549.39 830.61,2549.37 831.59,2549.84 832.40,2550.82"/>
    </edge>
    <edge id=":10009099246_0" function="internal">
        <lane id=":10009099246_0_0" index="0" disallow="pedestrian bicycle tram rail_urban rail rail_electric rail_fast ship" speed="4.54" length="2.58" shape="836.92,2556.29 839.28,2555.26"/>
    </edge>
    <edge id=":10009099246_1" function="internal">
        <lane id=":10009099246_1_0" index="0" disallow="pedestrian bicycle tram rail_urban rail rail_electric rail_fast ship" speed="13.89" length="3.53" shape="836.92,2556.29 836.20,2557.25 835.89,2558.08 835.50,2558.82 834.59,2559.51"/>
        <lane id=":10009099246_1_1" index="1" disallow="pedestrian bicycle tram rail_urban rail rail_electric rail_fast ship" speed="13.89" length="3.53" shape="834.31,2554.37 832.69,2556.89"/>
    </edge>
    <edge id=":10009099246_3" function="internal">
        <lane id=":10009099246_3_0" index="0" disallow="pedestrian bicycle tram rail_urban rail rail_electric rail_fast ship" speed="13.89" length="7.49" shape="835.24,2549.34 836.05,2551.33 836.11,2552.87 836.04,2554.46 836.47,2556.63"/>
    </edge>
    <edge id=":10009099246_4" function="internal">
        <lane id=":10009099246_4_0" index="0" disallow="pedestrian bicycle tram rail_urban rail rail_electric rail_fast ship" speed="7.16" length="9.10" shape="835.24,2549.34 836.85,2552.81 837.28,2555.66 836.53,2557.90 834.59,2559.51"/>
        <lane id=":10009099246_4_1" index="1" disallow="pedestrian bicycle tram rail_urban rail rail_electric rail_fast ship" speed="5.57" length="9.10" shape="832.50,2550.99 833.52,2553.09 833.89,2554.77 833.62,2556.04 832.69,2556.89"/>
    </edge>
    <edge id=":10009099251_0" function="internal">
        <lane id=":10009099251_0_0" index="0" disallow="pedestrian bicycle tram rail_urban rail rail_electric rail_fast ship" speed="5.66" length="3.44" shape="833.18,2565.02 832.13,2561.75"/>
    </edge>
    <edge id=":10009099251_1" function="internal">
        <lane id=":10009099251_1_0" index="0" disallow="pedestrian bicycle tram rail_urban rail rail_electric rail_fast ship" speed="13.89" length="11.10" shape="833.18,2565.02 830.41,2563.06 828.47,2561.73 826.75,2560.18 824.64,2557.56"/>
        <lane id=":10009099251_1_1" index="1" disallow="pedestrian bicycle tram rail_urban rail rail_electric rail_fast ship" speed="13.89" length="11.10" shape="835.08,2562.44 832.46,2560.60 830.64,2559.34 829.02,2557.88 827.03,2555.41"/>
    </edge>
    <edge id=":10009099251_3" function="internal">
        <lane id=":10009099251_3_0" index="0" disallow="pedestrian bicycle tram rail_urban rail rail_electric rail_fast ship" speed="13.89" length="4.02" shape="834.41,2559.60 833.37,2559.77 832.58,2559.34 831.78,2558.86 830.66,2558.86"/>
    </edge>
    <edge id=":10009099251_4" function="internal">
        <lane id=":10009099251_4_0" index="0" disallow="pedestrian bicycle tram rail_urban rail rail_electric rail_fast ship" speed="7.56" length="8.67" shape="834.41,2559.60 831.55,2560.63 828.96,2560.64 826.66,2559.62 824.64,2557.56"/>
        <lane id=":10009099251_4_1" index="1" disallow="pedestrian bicycle tram rail_urban rail rail_electric rail_fast ship" speed="5.87" length="8.67" shape="832.51,2556.98 830.99,2557.49 829.57,2557.40 828.25,2556.70 827.03,2555.41"/>
    </edge>
    <edge id=":10009099254_0" function="internal">
        <lane id=":10009099254_0_0" index="0" disallow="pedestrian bicycle tram rail_urban rail rail_electric rail_fast ship" speed="13.89" length="8.19" shape="824.52,2557.40 823.40,2555.36 823.19,2553.73 823.30,2551.96 823.10,2549.53"/>
    </edge>
    <edge id=":10009099254_1" function="internal">
        <lane id=":10009099254_1_0" index="0" disallow="pedestrian bicycle tram rail_urban rail rail_electric rail_fast ship" speed="7.25" length="8.55" shape="824.52,2557.40 823.23,2554.92 823.06,2552.51 824.00,2550.17 826.05,2547.90"/>
        <lane id=":10009099254_1_1" index="1" disallow="pedestrian bicycle tram rail_urban rail rail_electric rail_fast ship" speed="5.33" length="8.55" shape="826.91,2555.25 826.05,2553.66 825.94,2552.26 826.57,2551.04 827.94,2550.01"/>
    </edge>
    <edge id=":10009099254_3" function="internal">
        <lane id=":10009099254_3_0" index="0" disallow="pedestrian bicycle tram rail_urban rail rail_electric rail_fast ship" speed="5.21" length="2.38" shape="822.13,2551.39 820.00,2550.34"/>
    </edge>
    <edge id=":10009099254_4" function="internal">
        <lane id=":10009099254_4_0" index="0" disallow="pedestrian bicycle tram rail_urban rail rail_electric rail_fast ship" speed="13.89" length="4.90" shape="822.13,2551.39 823.14,2550.21 823.95,2549.51 824.83,2548.87 826.05,2547.90"/>
        <lane id=":10009099254_4_1" index="1" disallow="pedestrian bicycle tram rail_urban rail rail_electric rail_fast ship" speed="12.84" length="4.90" shape="824.80,2553.17 825.59,2552.08 826.15,2551.33 826.81,2550.70 827.94,2550.01"/>
    </edge>
    <edge id=":1005660219_0" function="internal">
        <lane id=":1005660219_0_0" index="0" allow="private emergency authority army vip passenger hov taxi coach delivery truck trailer motorcycle moped evehicle custom1 custom2" speed="16.67" length="9.71" shape="962.94,818.99 963.92,821.56 965.69,822.93 967.42,824.30 968.31,826.87"/>
        <lane id=":1005660219_0_1" index="1" allow="private emergency authority army vip passenger hov taxi coach delivery truck trailer motorcycle moped evehicle custom1 custom2" speed="16.67" length="9.71" shape="959.75,819.28 960.73,821.81 962.50,823.16 964.23,824.50 965.11,827.04"/>
        <lane id=":1005660219_0_2" index="2" allow="private emergency authority army vip passenger hov taxi coach delivery truck trailer motorcycle moped evehicle custom1 custom2" speed="16.67" length="9.71" shape="956.56,819.57 957.54,822.07 959.31,823.39 961.04,824.70 961.92,827.21"/>
        <lane id=":1005660219_0_3" index="3" allow="private emergency authority army vip passenger hov taxi coach delivery truck trailer motorcycle moped evehicle custom1 custom2" speed="16.67" length="9.71" shape="953.37,819.86 954.35,822.33 956.11,823.61 957.84,824.90 958.72,827.38"/>
        <lane id=":1005660219_0_4" index="4" allow="private emergency authority army vip passenger hov taxi coach delivery truck trailer motorcycle moped evehicle custom1 custom2" speed="16.67" length="9.71" shape="950.19,820.15 951.16,822.58 952.92,823.84 954.65,825.11 955.53,827.54"/>
    </edge>
    <edge id=":11068073247_w0" function="walkingarea">
        <lane id=":11068073247_w0_0" index="0" allow="pedestrian" speed="2.78" length="4.15" width="2.00" shape="1773.27,2572.78 1773.92,2570.89 1773.15,2570.40 1772.91,2570.04 1772.75,2569.60 1772.69,2569.07 1772.71,2568.46 1770.72,2568.25 1770.47,2569.02 1770.25,2569.24 1769.95,2569.36 1769.58,2569.36 1769.14,2569.25 1768.49,2571.15"/>
    </edge>
    <edge id=":12067308_0" function="internal">
        <lane id=":12067308_0_0" index="0" allow="bicycle" speed="16.67" length="1.07" width="1.25" shape="1182.09,2644.15 1180.68,2644.03"/>
        <lane id=":12067308_0_1" index="1" disallow="pedestrian bicycle tram rail_urban rail rail_electric rail_fast ship" speed="16.67" length="1.07" shape="1182.22,2641.92 1180.92,2641.82"/>
        <lane id=":12067308_0_2" index="2" disallow="pedestrian bicycle tram rail_urban rail rail_electric rail_fast ship" speed="16.67" length="1.07" shape="1182.41,2638.73 1181.26,2638.64"/>
        <lane id=":12067308_0_3" index="3" disallow="pedestrian bicycle tram rail_urban rail rail_electric rail_fast ship" speed="16.67" length="1.07" shape="1182.60,2635.54 1181.60,2635.46"/>
        <lane id=":12067308_0_4" index="4" disallow="pedestrian bicycle tram rail_urban rail rail_electric rail_fast ship" speed="16.67" length="1.07" shape="1182.78,2632.34 1181.94,2632.27"/>
        <lane id=":12067308_0_5" index="5" disallow="pedestrian bicycle tram rail_urban rail rail_electric rail_fast ship" speed="16.67" length="1.07" shape="1182.97,2629.15 1182.28,2629.09"/>
    </edge>
    <edge id=":12067308_w0" function="walkingarea">
        <lane id=":12067308_w0_0" index="0" allow="pedestrian" speed="2.78" length="0.10" width="3.20" shape="1182.13,2643.52 1182.32,2640.33 1182.50,2637.13 1182.69,2633.94 1182.88,2630.74 1183.06,2627.55"/>
    </edge>
    <edge id=":1263630863_0" function="internal">
        <lane id=":1263630863_0_0" index="0" disallow="pedestrian tram rail_urban rail rail_electric rail_fast ship" speed="3.65" length="4.67" shape="1991.47,2404.81 1992.68,2405.60 1993.08,2406.40 1992.68,2407.20 1991.49,2408.01"/>
    </edge>
    <edge id=":1438424996_0" function="internal">
        <lane id=":1438424996_0_0" index="0" disallow="pedestrian tram rail_urban rail rail_electric rail_fast ship" speed="3.65" length="4.67" shape="1648.16,2310.45 1647.56,2309.13 1647.64,2308.24 1648.40,2307.77 1649.84,2307.72"/>
    </edge>
    <edge id=":1438425000_0" function="internal">
        <lane id=":1438425000_0_0" index="0" allow="bicycle" speed="4.88" length="4.58" width="2.00" shape="1753.45,2318.62 1752.33,2318.57 1751.43,2318.97 1750.74,2319.82 1750.27,2321.12"/>
    </edge>
    <edge id=":1438425000_1" function="internal">
        <lane id=":1438425000_1_0" index="0" disallow="pedestrian tram rail_urban rail rail_electric rail_fast ship" speed="8.33" length="7.03" shape="1753.45,2318.62 1746.59,2317.08"/>
    </edge>
    <edge id=":1438425000_2" function="internal">
        <lane id=":1438425000_2_0" index="0" allow="bicycle" speed="6.42" length="2.36" width="2.00" shape="1753.45,2318.62 1751.61,2317.81 1751.40,2317.53"/>
    </edge>
    <edge id=":1438425000_14" function="internal">
        <lane id=":1438425000_14_0" index="0" allow="bicycle" speed="6.42" length="6.41" width="2.00" shape="1751.40,2317.53 1750.50,2316.35 1750.10,2314.24 1750.42,2311.48"/>
    </edge>
    <edge id=":1438425000_3" function="internal">
        <lane id=":1438425000_3_0" index="0" allow="bicycle" speed="4.67" length="4.54" width="2.00" shape="1752.37,2311.91 1752.23,2313.28 1752.48,2314.33 1753.12,2315.07 1754.14,2315.49"/>
    </edge>
    <edge id=":1438425000_4" function="internal">
        <lane id=":1438425000_4_0" index="0" allow="pedestrian bicycle" speed="5.56" length="9.44" width="2.00" shape="1752.37,2311.91 1750.27,2321.12"/>
    </edge>
    <edge id=":1438425000_5" function="internal">
        <lane id=":1438425000_5_0" index="0" allow="bicycle" speed="6.28" length="8.78" width="2.00" shape="1752.37,2311.91 1751.50,2314.55 1750.25,2316.29 1748.61,2317.13 1746.59,2317.08"/>
    </edge>
    <edge id=":1438425000_6" function="internal">
        <lane id=":1438425000_6_0" index="0" allow="pedestrian bicycle" speed="2.89" length="2.92" width="2.00" shape="1752.37,2311.91 1751.72,2312.54 1751.18,2312.67 1750.75,2312.32 1750.42,2311.48"/>
    </edge>
    <edge id=":1438425000_7" function="internal">
        <lane id=":1438425000_7_0" index="0" allow="bicycle" speed="4.83" length="4.53" width="2.00" shape="1747.30,2313.96 1748.41,2314.01 1749.30,2313.62 1749.97,2312.77 1750.42,2311.48"/>
    </edge>
    <edge id=":1438425000_8" function="internal">
        <lane id=":1438425000_8_0" index="0" disallow="pedestrian tram rail_urban rail rail_electric rail_fast ship" speed="8.33" length="7.01" shape="1747.30,2313.96 1754.14,2315.49"/>
    </edge>
    <edge id=":1438425000_9" function="internal">
        <lane id=":1438425000_9_0" index="0" allow="bicycle" speed="6.41" length="2.35" width="2.00" shape="1747.30,2313.96 1749.14,2314.78 1749.34,2315.05"/>
    </edge>
    <edge id=":1438425000_15" function="internal">
        <lane id=":1438425000_15_0" index="0" allow="bicycle" speed="6.41" length="6.44" width="2.00" shape="1749.34,2315.05 1750.25,2316.25 1750.63,2318.36 1750.27,2321.12"/>
    </edge>
    <edge id=":1438425000_10" function="internal">
        <lane id=":1438425000_10_0" index="0" allow="bicycle" speed="4.66" length="4.53" width="2.00" shape="1748.33,2320.66 1748.48,2319.30 1748.25,2318.25 1747.62,2317.51 1746.59,2317.08"/>
    </edge>
    <edge id=":1438425000_11" function="internal">
        <lane id=":1438425000_11_0" index="0" allow="pedestrian bicycle" speed="5.56" length="9.41" width="2.00" shape="1748.33,2320.66 1750.42,2311.48"/>
    </edge>
    <edge id=":1438425000_12" function="internal">
        <lane id=":1438425000_12_0" index="0" allow="bicycle" speed="6.32" length="8.77" width="2.00" shape="1748.33,2320.66 1749.23,2318.04 1750.50,2316.30 1752.14,2315.45 1754.14,2315.49"/>
    </edge>
    <edge id=":1438425000_13" function="internal">
        <lane id=":1438425000_13_0" index="0" allow="pedestrian bicycle" speed="2.89" length="2.92" width="2.00" shape="1748.33,2320.66 1748.98,2320.04 1749.53,2319.92 1749.96,2320.27 1750.27,2321.12"/>
    </edge>
    <edge id=":1438425000_c0" function="crossing" crossingEdges="156782727#1 -156782727#1">
        <lane id=":1438425000_c0_0" index="0" allow="pedestrian" speed="2.78" length="6.40" width="4.00" shape="1748.18,2319.08 1749.60,2312.84"/>
    </edge>
    <edge id=":1438425000_w0" function="walkingarea">
        <lane id=":1438425000_w0_0" index="0" allow="pedestrian" speed="2.78" length="2.17" width="4.00" shape="1753.35,2312.13 1751.40,2311.70 1749.44,2311.27 1747.65,2312.40 1751.55,2313.29"/>
    </edge>
    <edge id=":1438425000_w1" function="walkingarea">
        <lane id=":1438425000_w1_0" index="0" allow="pedestrian" speed="2.78" length="2.17" width="4.00" shape="1750.13,2319.53 1746.23,2318.64 1747.35,2320.43 1749.30,2320.89 1751.25,2321.35"/>
    </edge>
    <edge id=":1438428849_0" function="internal">
        <lane id=":1438428849_0_0" index="0" disallow="pedestrian tram rail_urban rail rail_electric rail_fast ship" speed="5.56" length="5.24" shape="1683.20,2187.96 1681.81,2187.26 1680.84,2186.83 1679.84,2186.45 1678.39,2185.89"/>
    </edge>
    <edge id=":1438428849_1" function="internal">
        <lane id=":1438428849_1_0" index="0" disallow="pedestrian tram rail_urban rail rail_electric rail_fast ship" speed="5.56" length="5.58" shape="1679.56,2182.91 1681.11,2183.51 1682.16,2183.92 1683.20,2184.37 1684.68,2185.12"/>
    </edge>
    <edge id=":1532354408_w0" function="walkingarea">
        <lane id=":1532354408_w0_0" index="0" allow="pedestrian" speed="2.78" length="1.41" width="2.00" shape="1701.45,1063.27 1701.52,1061.27 1700.41,1061.45 1700.01,1061.71 1699.72,1062.09 1699.53,1062.58 1699.45,1063.18 1701.45,1063.27"/>
    </edge>
    <edge id=":1532354410_w0" function="walkingarea">
        <lane id=":1532354410_w0_0" index="0" allow="pedestrian" speed="2.78" length="1.41" width="2.00" shape="1732.34,1062.45 1730.34,1062.36 1730.27,1064.36 1731.38,1064.18 1731.78,1063.92 1732.07,1063.55 1732.26,1063.06"/>
    </edge>
    <edge id=":1627746697_w0" function="walkingarea">
        <lane id=":1627746697_w0_0" index="0" allow="pedestrian" speed="2.78" length="2.20" width="2.00" shape="1179.75,2597.58 1179.38,2595.62 1178.29,2595.80 1177.90,2595.83 1177.52,2595.81 1177.05,2595.76 1176.42,2595.66 1176.16,2597.69 1177.49,2597.84 1177.96,2597.85 1178.43,2597.81 1178.99,2597.72"/>
    </edge>
    <edge id=":1690194024_w0" function="walkingarea">
        <lane id=":1690194024_w0_0" index="0" allow="pedestrian" speed="2.78" length="4.06" width="2.00" shape="812.28,2545.35 810.28,2545.21 810.06,2546.02 809.83,2546.28 809.53,2546.45 809.15,2546.52 808.69,2546.49 808.41,2548.47 809.28,2548.77 809.56,2549.02 809.75,2549.34 809.85,2549.73 809.84,2550.19 811.83,2550.41"/>
    </edge>
    <edge id=":1690251604_0" function="internal">
        <lane id=":1690251604_0_0" index="0" allow="pedestrian bicycle" speed="2.78" length="2.92" width="2.00" shape="1445.08,1646.34 1445.57,1645.59 1446.07,1645.33 1446.57,1645.57 1447.08,1646.32"/>
    </edge>
    <edge id=":1705549179_w0" function="walkingarea">
        <lane id=":1705549179_w0_0" index="0" allow="pedestrian" speed="2.78" length="0.28" width="2.00" shape="785.68,2544.32 786.08,2542.36 785.82,2542.30 785.39,2544.26"/>
    </edge>
    <edge id=":1705549182_0" function="internal">
        <lane id=":1705549182_0_0" index="0" allow="bicycle" speed="16.67" length="5.23" width="1.25" shape="860.61,2524.20 860.10,2529.25"/>
        <lane id=":1705549182_0_1" index="1" disallow="pedestrian bicycle tram rail_urban rail rail_electric rail_fast ship" speed="16.67" length="5.23" shape="858.40,2523.94 857.89,2529.05"/>
        <lane id=":1705549182_0_2" index="2" disallow="pedestrian bicycle tram rail_urban rail rail_electric rail_fast ship" speed="16.67" length="5.23" shape="855.22,2523.57 854.70,2528.77"/>
        <lane id=":1705549182_0_3" index="3" disallow="pedestrian bicycle tram rail_urban rail rail_electric rail_fast ship" speed="16.67" length="5.23" shape="852.05,2523.20 851.51,2528.49"/>
        <lane id=":1705549182_0_4" index="4" disallow="pedestrian bicycle tram rail_urban rail rail_electric rail_fast ship" speed="16.67" length="5.23" shape="848.87,2522.84 848.32,2528.21"/>
    </edge>
    <edge id=":1705549182_c0" function="crossing" crossingEdges="245317925#0">
        <lane id=":1705549182_c0_0" index="0" allow="pedestrian" speed="2.78" length="14.05" width="4.00" shape="847.05,2524.64 861.00,2526.26"/>
    </edge>
    <edge id=":1705549182_w0" function="walkingarea">
        <lane id=":1705549182_w0_0" index="0" allow="pedestrian" speed="2.78" length="3.52" width="4.00" shape="860.73,2529.30 862.72,2529.48 864.34,2528.15 864.56,2526.16 863.22,2524.50 861.23,2524.27 860.77,2528.24"/>
    </edge>
    <edge id=":1705549182_w1" function="walkingarea">
        <lane id=":1705549182_w1_0" index="0" allow="pedestrian" speed="2.78" length="4.16" width="4.00" shape="846.82,2526.63 847.28,2522.65 844.10,2522.28 842.42,2523.71 842.20,2525.70 843.54,2527.80 846.73,2528.07"/>
    </edge>
    <edge id=":1723298722_0" function="internal">
        <lane id=":1723298722_0_0" index="0" allow="bicycle" speed="16.67" length="12.52" width="1.25" shape="1007.04,2613.38 994.87,2610.37"/>
        <lane id=":1723298722_0_1" index="1" disallow="pedestrian bicycle tram rail_urban rail rail_electric rail_fast ship" speed="16.67" length="12.52" shape="1007.57,2611.22 995.41,2608.21"/>
        <lane id=":1723298722_0_2" index="2" disallow="pedestrian bicycle tram rail_urban rail rail_electric rail_fast ship" speed="16.67" length="12.52" shape="1008.33,2608.11 996.17,2605.10"/>
        <lane id=":1723298722_0_3" index="3" disallow="pedestrian bicycle tram rail_urban rail rail_electric rail_fast ship" speed="16.67" length="12.52" shape="1009.09,2605.00 996.94,2602.00"/>
        <lane id=":1723298722_0_4" index="4" disallow="pedestrian bicycle tram rail_urban rail rail_electric rail_fast ship" speed="16.67" length="12.52" shape="1009.85,2601.89 997.71,2598.89"/>
    </edge>
    <edge id=":1723298722_5" function="internal">
        <lane id=":1723298722_5_0" index="0" disallow="pedestrian bicycle tram rail_urban rail rail_electric rail_fast ship" speed="10.36" length="12.13" shape="1009.85,2601.89 1006.44,2600.79 1003.69,2599.31 1001.61,2597.45 1000.20,2595.22"/>
    </edge>
    <edge id=":1775885391_0" function="internal">
        <lane id=":1775885391_0_0" index="0" allow="pedestrian bicycle" speed="2.89" length="2.92" width="2.00" shape="1640.38,2212.07 1639.62,2211.59 1639.35,2211.10 1639.58,2210.59 1640.32,2210.07"/>
    </edge>
    <edge id=":1775885401_0" function="internal">
        <lane id=":1775885401_0_0" index="0" allow="pedestrian bicycle" speed="5.56" length="7.00" width="2.00" shape="1748.52,2339.40 1741.71,2337.76"/>
    </edge>
    <edge id=":1775885401_1" function="internal">
        <lane id=":1775885401_1_0" index="0" allow="pedestrian bicycle" speed="5.56" length="7.26" width="2.00" shape="1748.52,2339.40 1746.67,2338.67 1745.51,2337.52 1745.01,2335.95 1745.19,2333.96"/>
    </edge>
    <edge id=":1775885401_2" function="internal">
        <lane id=":1775885401_2_0" index="0" allow="pedestrian bicycle" speed="2.89" length="2.92" width="2.00" shape="1748.52,2339.40 1747.90,2338.74 1747.78,2338.19 1748.14,2337.77 1748.99,2337.46"/>
    </edge>
    <edge id=":1775885401_3" function="internal">
        <lane id=":1775885401_3_0" index="0" allow="pedestrian bicycle" speed="4.45" length="4.05" width="2.00" shape="1747.14,2334.42 1747.04,2335.53 1747.31,2336.41 1747.96,2337.05 1748.99,2337.46"/>
    </edge>
    <edge id=":1775885401_4" function="internal">
        <lane id=":1775885401_4_0" index="0" allow="pedestrian bicycle" speed="5.56" length="7.27" width="2.00" shape="1747.14,2334.42 1746.41,2336.28 1745.26,2337.45 1743.70,2337.95 1741.71,2337.76"/>
    </edge>
    <edge id=":1775885401_5" function="internal">
        <lane id=":1775885401_5_0" index="0" allow="pedestrian bicycle" speed="2.89" length="2.92" width="2.00" shape="1747.14,2334.42 1746.48,2335.04 1745.94,2335.17 1745.51,2334.81 1745.19,2333.96"/>
    </edge>
    <edge id=":1775885401_6" function="internal">
        <lane id=":1775885401_6_0" index="0" allow="pedestrian bicycle" speed="4.43" length="4.03" width="2.00" shape="1742.18,2335.81 1743.28,2335.92 1744.15,2335.65 1744.79,2334.99 1745.19,2333.96"/>
    </edge>
    <edge id=":1775885401_7" function="internal">
        <lane id=":1775885401_7_0" index="0" allow="pedestrian bicycle" speed="5.56" length="7.00" width="2.00" shape="1742.18,2335.81 1748.99,2337.46"/>
    </edge>
    <edge id=":1775885401_8" function="internal">
        <lane id=":1775885401_8_0" index="0" allow="pedestrian bicycle" speed="2.89" length="2.92" width="2.00" shape="1742.18,2335.81 1742.79,2336.48 1742.92,2337.02 1742.56,2337.45 1741.71,2337.76"/>
    </edge>
    <edge id=":1775885401_w0" function="walkingarea">
        <lane id=":1775885401_w0_0" index="0" allow="pedestrian" speed="2.78" length="5.00" width="2.00" shape="1748.28,2340.37 1749.22,2336.48 1748.45,2336.12 1748.21,2335.85 1748.08,2335.51 1748.05,2335.11 1748.11,2334.65 1744.22,2333.73 1743.87,2334.51 1743.60,2334.74 1743.26,2334.88 1742.87,2334.91 1742.42,2334.84 1741.48,2338.73"/>
    </edge>
    <edge id=":1775885403_0" function="internal">
        <lane id=":1775885403_0_0" index="0" allow="pedestrian bicycle" speed="5.56" length="7.04" width="2.00" shape="1692.39,2225.70 1688.58,2231.62"/>
    </edge>
    <edge id=":1775885403_1" function="internal">
        <lane id=":1775885403_1_0" index="0" allow="pedestrian bicycle" speed="5.56" length="7.35" width="2.00" shape="1692.39,2225.70 1691.15,2227.09 1689.67,2227.80 1687.92,2227.84 1685.93,2227.20"/>
    </edge>
    <edge id=":1775885403_2" function="internal">
        <lane id=":1775885403_2_0" index="0" allow="pedestrian bicycle" speed="2.89" length="2.92" width="2.00" shape="1692.39,2225.70 1691.57,2226.06 1691.01,2226.00 1690.72,2225.52 1690.71,2224.62"/>
    </edge>
    <edge id=":1775885403_3" function="internal">
        <lane id=":1775885403_3_0" index="0" allow="pedestrian bicycle" speed="4.87" length="4.45" width="2.00" shape="1686.76,2225.38 1688.01,2225.80 1689.08,2225.80 1689.98,2225.41 1690.71,2224.62"/>
    </edge>
    <edge id=":1775885403_4" function="internal">
        <lane id=":1775885403_4_0" index="0" allow="pedestrian bicycle" speed="5.56" length="7.67" width="2.00" shape="1686.76,2225.38 1688.56,2226.55 1689.47,2227.98 1689.48,2229.67 1688.58,2231.62"/>
    </edge>
    <edge id=":1775885403_5" function="internal">
        <lane id=":1775885403_5_0" index="0" allow="pedestrian bicycle" speed="2.89" length="2.92" width="2.00" shape="1686.76,2225.38 1687.23,2226.15 1687.25,2226.71 1686.82,2227.06 1685.93,2227.20"/>
    </edge>
    <edge id=":1775885403_6" function="internal">
        <lane id=":1775885403_6_0" index="0" allow="pedestrian bicycle" speed="4.28" length="4.11" width="2.00" shape="1686.90,2230.54 1687.38,2229.49 1687.37,2228.59 1686.89,2227.83 1685.93,2227.20"/>
    </edge>
    <edge id=":1775885403_7" function="internal">
        <lane id=":1775885403_7_0" index="0" allow="pedestrian bicycle" speed="5.56" length="7.04" width="2.00" shape="1686.90,2230.54 1690.71,2224.62"/>
    </edge>
    <edge id=":1775885403_8" function="internal">