<?xml version="1.0" encoding="UTF-8"?>

<!-- generated on 2024-04-03 12:28:21 by Eclipse SUMO netedit Version 1.19.0
-->

<routes xmlns:xsi="http://www.w3.org/2001/XMLSchema-instance" xsi:noNamespaceSchemaLocation="http://sumo.dlr.de/xsd/routes_file.xsd">
    <!-- VTypes -->
    <vType id="UV1" maxSpeed="22.20" vClass="passenger" guiShape="passenger/van" color="red"/>
    <vType id="bike_bicycle" vClass="bicycle"/>
    <vType id="bus_bus" vClass="bus"/>
    <vType id="motorcycle_motorcycle" vClass="motorcycle"/>
    <vType id="ped_pedestrian" vClass="pedestrian"/>
    <vType id="pt_aerialway" length="2.50" vClass="rail_urban" width="2.00" personCapacity="4"/>
    <vType id="pt_bus" vClass="bus"/>
    <vType id="pt_ferry" vClass="ship"/>
    <vType id="pt_light_rail" vClass="rail_urban"/>
    <vType id="pt_minibus" vClass="bus"/>
    <vType id="pt_monorail" vClass="rail_urban"/>
    <vType id="pt_share_taxi" vClass="taxi"/>
    <vType id="pt_subway" vClass="rail_urban"/>
    <vType id="pt_train" vClass="rail"/>
    <vType id="pt_tram" vClass="tram"/>
    <vType id="pt_trolleybus" vClass="bus"/>
    <vType id="truck_truck" vClass="truck"/>
    <vType id="veh_passenger" vClass="passenger"/>
    <!-- Routes -->
    <route id="pt_bus_1:1" edges="775216094 22761597#0 22761597#1"/>
    <!-- Vehicles, persons and containers (sorted by depart) -->
    <trip id="veh0" type="veh_passenger" depart="0.00" departLane="best" from="644875507#1" to="-224042473"/>
    <trip id="UV_Trip1" type="UV1" depart="1.00" departLane="first" departPos="base" departSpeed="5.55" arrivalLane="5" from="621030728" to="665068136#1">
        <stop busStop="bs_0" duration="15.00"/>
        <stop busStop="bs_1" duration="15.00"/>
        <stop busStop="bs_2" duration="15.00"/>
        <stop busStop="bs_3" duration="15.00"/>
        <stop busStop="bs_4" duration="15.00"/>
        <stop busStop="1723298719" duration="15.00"/>
        <stop busStop="11061344311" duration="15.00"/>
        <stop busStop="bs_5" duration="60.00"/>
    </trip>
    <trip id="veh1" type="veh_passenger" depart="6.44" departLane="best" from="245238968" to="22761597#1"/>
    <trip id="truck1" type="truck_truck" depart="9.66" departLane="best" departSpeed="max" from="632555185" to="4249937"/>
    <person id="ped2" type="ped_pedestrian" depart="15.73">
        <walk edges="645165804#1 665068147#1 688086638 711708399#1 675445993#1 675445997 675445995#0 675172195 711708396#1 711708389#3 711708389#2 749621680 749621679#0 749621679#1 749621678 722094931#1 909949880#3 909949880#2 665068135#3 665068135#2 665068135#1 238969210 167048050 295122031#0 576201872 576201873 576201869 1192230684 576201865 576201871"/>
    </person>
    <trip id="motorcycle1" type="motorcycle_motorcycle" depart="18.78" departLane="best" departSpeed="max" from="224042473" to="156782727#1"/>
    <trip id="truck2" type="truck_truck" depart="19.32" departLane="best" from="700820554#0" to="-224042474"/>
    <trip id="veh3" type="veh_passenger" depart="19.32" departLane="best" from="840378998" to="1076611437#1"/>
    <trip id="bus1" type="bus_bus" depart="22.62" departLane="best" departSpeed="max" from="632555185" to="4249937"/>
    <person id="ped4" type="ped_pedestrian" depart="31.47">
        <walk edges="222840564 -166104874#1"/>
    </person>
    <trip id="truck4" type="truck_truck" depart="38.65" departLane="best" departSpeed="max" from="156420784" to="40122556#1"/>
    <trip id="veh7" type="veh_passenger" depart="45.09" departLane="best" from="644875508" to="4245637#1"/>
    <trip id="bus2" type="bus_bus" depart="45.24" departLane="best" from="700820554#1" to="-224042474"/>
    <trip id="truck5" type="truck_truck" depart="48.31" departLane="best" departSpeed="max" from="654885026" to="-224039649"/>
    <trip id="veh8" type="veh_passenger" depart="51.53" departLane="best" from="22738849#1" to="456482267"/>
    <person id="ped7" type="ped_pedestrian" depart="55.07">
        <walk edges="572003068#1 572003068#0 711708400#3 369827665#0 369827665#1"/>
    </person>
    <trip id="truck6" type="truck_truck" depart="57.97" departLane="best" from="645165804#1" to="456482267"/>
    <trip id="veh9" type="veh_passenger" depart="57.97" departLane="best" from="678960768#1" to="-224039649"/>
    <trip id="veh11" type="veh_passenger" depart="70.86" departLane="best" departSpeed="max" from="909967551" to="245317928"/>
    <trip id="motorcycle4" type="motorcycle_motorcycle" depart="75.10" departLane="best" from="245317925#0" to="-224039660#0"/>
    <trip id="veh12" type="veh_passenger" depart="77.30" departLane="best" from="700820554#2" to="456482267"/>
    <person id="ped10" type="ped_pedestrian" depart="78.67">
        <walk edges="688086638 711708399#1 675445993#1 675445997 675445995#0 675172195 711708396#1 711708389#3 711708389#2 749621680 749621679#0 749621679#1 749621678 722094931#1 909949880#3 909949880#2 665068135#3 665068135#2 665068135#1 238969210 167048050 295122031#1 295122031#2 295122031#3 30260201 37935481#1 580395205#1"/>
    </person>
    <trip id="veh13" type="veh_passenger" depart="83.74" departLane="best" from="678960768#1" to="644875507#0"/>
    <trip id="veh14" type="veh_passenger" depart="90.18" departLane="best" from="355084527" to="4249937"/>
    <trip id="bus4" type="bus_bus" depart="90.48" departLane="best" departSpeed="max" from="4245528" to="35356690"/>
    <person id="ped12" type="ped_pedestrian" depart="94.40">
        <walk edges="878862905#1 878865705 878862911#1 878862912 238197666 355083423 355083421 355083424 711708391 711708389#2 749621680 749621679#0 849616388 849516786 1074940676 156780851"/>
    </person>
    <person id="ped13" type="ped_pedestrian" depart="102.26">
        <walk edges="-245317915#0 -665068147#0 195513140#1 -369829204#1 -355084529 -355084526 -700820552 -245317925#0 -245317925#1"/>
    </person>
    <trip id="veh16" type="veh_passenger" depart="103.07" departLane="best" from="711708392" to="456482267"/>
    <trip id="bike6" type="bike_bicycle" depart="103.32" departLane="best" departSpeed="max" from="-156782727#1" to="-224042473"/>
    <person id="ped14" type="ped_pedestrian" depart="110.13">
        <walk edges="711708398 711708400#3 369827665#0 665068147#1 688086638 711708399#1 675445993#1 675445997 675445995#0 675172195 711708396#1 711708389#3 711708389#2 749621680 749621679#0 749621679#1 749621678 722094931#1 909949880#3 909949880#2 665068135#3 37935914"/>
    </person>
    <trip id="bus5" type="bus_bus" depart="113.10" departLane="best" departSpeed="max" from="156420784" to="40122556#1"/>
    <trip id="truck12" type="truck_truck" depart="115.95" departLane="best" departSpeed="max" from="654885026" to="4245637#0"/>
    <trip id="veh19" type="veh_passenger" depart="122.39" departLane="best" from="644875507#1" to="245317933#1"/>
    <person id="ped16" type="ped_pedestrian" depart="125.86">
        <walk edges="361113855 572003068#0 711708400#3 369827665#0 665068147#1 688086638 711708399#1 675445993#1 675445997 675445995#0 675172195 711708396#1 711708389#3 711708391 355083424 355083421 355083423 238197666 878862912 878862911#2"/>
    </person>
    <trip id="veh20" type="veh_passenger" depart="128.83" departLane="best" departSpeed="max" from="35356373" to="22761597#1"/>
    <trip id="motorcycle7" type="motorcycle_motorcycle" depart="131.43" departLane="best" from="657272437" to="156782727#0"/>
    <person id="ped18" type="ped_pedestrian" depart="141.60">
        <walk edges="711708391 711708389#2 749621680 749621679#0 749621679#1 749621678 722094931#1 909949880#3 909949880#2 1076611437#2 4245637#0 4245637#1"/>
    </person>
    <trip id="veh22" type="veh_passenger" depart="141.71" departLane="best" from="644875508" to="456482267"/>
    <trip id="veh23" type="veh_passenger" depart="148.16" departLane="best" departSpeed="max" from="224057408#0" to="644875507#0"/>
    <person id="ped19" type="ped_pedestrian" depart="149.46">
        <walk edges="711708400#3 369827665#0 665068147#1 688086638 711708399#1 675445993#1 675445997 675445995#0 675172195 711708396#1 711708389#3 711708389#2 749621680 749621679#0 749621679#1 749621678 722094931#1 909949880#3 909949880#2 665068135#3 665068135#2 665068135#1 238969210 167048050 295122031#1 295122031#2 295122031#3 30260201 37935481#2"/>
    </person>
    <trip id="motorcycle8" type="motorcycle_motorcycle" depart="150.21" departLane="best" departSpeed="max" from="654885026" to="621030741#1"/>
    <trip id="veh25" type="veh_passenger" depart="161.04" departLane="best" from="700820554#1" to="644875524"/>
    <trip id="bike10" type="bike_bicycle" depart="172.20" departLane="best" departSpeed="max" from="636737596#0" to="369829194"/>
    <trip id="veh28" type="veh_passenger" depart="180.36" departLane="best" from="22738849#0" to="711708392"/>
    <trip id="bus8" type="bus_bus" depart="180.97" departLane="best" from="657272437" to="40122556#1"/>
    <trip id="truck19" type="truck_truck" depart="183.58" departLane="best" departSpeed="max" from="914977491#0" to="4245637#1"/>
    <trip id="motorcycle10" type="motorcycle_motorcycle" depart="187.76" departLane="best" from="840378999" to="22761597#0"/>
    <trip id="bike11" type="bike_bicycle" depart="189.42" departLane="best" from="156782727#0" to="-222840564"/>
    <trip id="truck20" type="truck_truck" depart="193.25" departLane="best" from="369829204#0" to="456482267"/>
    <trip id="veh31" type="veh_passenger" depart="199.69" departLane="best" departSpeed="max" from="909967551" to="40122556#1"/>
    <trip id="truck21" type="truck_truck" depart="202.91" departLane="best" from="657272437" to="621030741#1"/>
    <trip id="veh32" type="veh_passenger" depart="206.13" departLane="best" departSpeed="max" from="632555185" to="22761597#1"/>
    <trip id="veh34" type="veh_passenger" depart="219.01" departLane="best" from="369829204#0" to="22761597#1"/>
    <trip id="veh35" type="veh_passenger" depart="225.45" departLane="best" departSpeed="max" from="914977491#0" to="4245637#1"/>
    <person id="ped30" type="ped_pedestrian" depart="236.00">
        <walk edges="909949880#2 665068135#3 665068135#2 665068135#1 238969210 167048050 295122031#1 295122031#2 295122031#3 850328349#1 561497026#3"/>
    </person>
    <trip id="truck25" type="truck_truck" depart="241.56" departLane="best" from="369829204#1" to="156782727#1"/>
    <person id="ped31" type="ped_pedestrian" depart="243.86">
        <walk edges="37927947#1 32869234 295122031#2 295122031#1 295122031#0 576201872 576201873"/>
    </person>
    <trip id="motorcycle13" type="motorcycle_motorcycle" depart="244.09" departLane="best" departSpeed="max" from="22738859" to="423774438#0"/>
    <trip id="veh39" type="veh_passenger" depart="251.22" departLane="best" departSpeed="max" from="914977491#0" to="4245637#1"/>
    <person id="ped32" type="ped_pedestrian" depart="251.73">
        <walk edges="711708397#0 711708396#1 675172195"/>
    </person>
    <trip id="veh40" type="veh_passenger" depart="257.66" departLane="best" departSpeed="max" from="909967551" to="667228840#0"/>
    <trip id="bike15" type="bike_bicycle" depart="258.30" departLane="best" from="644875507#0" to="4245637#0"/>
    <trip id="truck27" type="truck_truck" depart="260.88" departLane="best" from="22731331#1" to="1074926268"/>
    <trip id="motorcycle14" type="motorcycle_motorcycle" depart="262.87" departLane="best" from="667228839" to="4249937"/>
    <trip id="motorcycle15" type="motorcycle_motorcycle" depart="281.64" departLane="best" from="644875492#0" to="-224042472#0"/>
    <trip id="truck30" type="truck_truck" depart="289.87" departLane="best" from="678960768#1" to="156782727#1"/>
    <trip id="veh45" type="veh_passenger" depart="289.87" departLane="best" from="423774438#0" to="711708392"/>
    <trip id="bus13" type="bus_bus" depart="294.07" departLane="best" from="667228839" to="40122556#1"/>
    <person id="ped38" type="ped_pedestrian" depart="298.93">
        <walk edges="777923706#1 665068127 1192230683 561497026#4 561497026#3 850328349#1 295122031#3 295122031#2 295122031#1 167048050 238969210 665068135#1 665068135#2 665068135#3 909949880#2 909949880#3 722094931#1 749621678 749621679#1 749621679#0 749621680 711708389#1 1015988488#0 1015988488#1 245317925#1"/>
    </person>
    <person id="ped39" type="ped_pedestrian" depart="306.79">
        <walk edges="1076611437#1 909949880#2 909949880#3 722094931#1 749621678 749621679#1 849616388 849516786 1074940676"/>
    </person>
    <trip id="veh48" type="veh_passenger" depart="309.20" departLane="best" from="840378999" to="667228840#1"/>
    <trip id="bike18" type="bike_bicycle" depart="309.96" departLane="best" from="645165804#1" to="245317930"/>
    <person id="ped42" type="ped_pedestrian" depart="330.39">
        <walk edges="167048050 238969210 665068135#1 665068135#2 665068135#3 909949880#2 909949880#3 722094931#1 749621678 749621679#1 749621679#0 749621680 711708389#1 1018918359"/>
    </person>
    <trip id="truck35" type="truck_truck" depart="338.18" departLane="best" from="644875492#1" to="35356690"/>
    <person id="ped43" type="ped_pedestrian" depart="338.26">
        <walk edges="909970046 37935481#6 37935481#5 37935481#4 561497026#2 850328349#1 295122031#3 32869234"/>
    </person>
    <trip id="truck36" type="truck_truck" depart="347.84" departLane="best" from="644875507#1" to="35356690"/>
    <trip id="veh55" type="veh_passenger" depart="354.29" departLane="best" from="711708395" to="665068147#1"/>
    <trip id="bike21" type="bike_bicycle" depart="361.62" departLane="best" departSpeed="max" from="-28500934" to="-918535929"/>
    <trip id="veh57" type="veh_passenger" depart="367.17" departLane="best" from="711708395" to="711708392"/>
    <person id="ped47" type="ped_pedestrian" depart="369.73">
        <walk edges="-166104888#1 -166104887#1 -166104887#0 166104887#0"/>
    </person>
    <trip id="truck39" type="truck_truck" depart="376.83" departLane="best" from="245317925#0" to="369829194"/>
    <trip id="veh59" type="veh_passenger" depart="380.05" departLane="best" from="369829204#1" to="22761597#1"/>
    <flow id="pt_bus_1:1" type="pt_bus" begin="383.00" line="1:1" route="pt_bus_1:1" end="3983.00" period="180.00">
        <param key="completeness" value="0.00"/>
        <param key="name" value="City Bus Route 1: EDSA Busway (northbound)"/>
    </flow>
    <person id="ped49" type="ped_pedestrian" depart="385.46">
        <walk edges="878862911#2 878862912 238197666 355083423 355083421 355083424 711708391 711708389#3 711708396#1 675172195 675445995#0 675445997 675445993#1 711708399#1 688086638 665068147#1 369827665#0 711708400#3"/>
    </person>
    <trip id="veh60" type="veh_passenger" depart="386.49" departLane="best" from="621030728" to="644875507#0"/>
    <trip id="veh61" type="veh_passenger" depart="392.94" departLane="best" from="22738847" to="245317925#1"/>
    <trip id="motorcycle21" type="motorcycle_motorcycle" depart="394.30" departLane="best" from="576201839" to="4249937"/>
    <person id="ped51" type="ped_pedestrian" depart="401.19">
        <walk edges="576201872 295122031#0 167048050 238969210 665068135#1 665068135#2 665068135#3 909949880#2 909949880#3 722094931#1 749621678 749621679#1 749621679#0 749621680 711708389#2 711708389#3 711708396#1 675172195 675445995#0 675445997 675445993#1 711708399#1 688086638 665068147#1 369827665#0 711708400#3 572003068#0 361113855 361113856"/>
    </person>
    <trip id="truck42" type="truck_truck" depart="405.82" departLane="best" departSpeed="max" from="914977491#0" to="4245637#1"/>
    <person id="ped52" type="ped_pedestrian" depart="409.06">
        <walk edges="1076611437#2 665068135#3 665068135#2 665068135#1 238969210 167048050 295122031#1 295122031#2 295122031#3 850328349#1 561497026#3 561497026#4"/>
    </person>
    <trip id="veh64" type="veh_passenger" depart="412.26" departLane="best" from="156782224" to="22761597#1"/>
    <trip id="truck43" type="truck_truck" depart="415.48" departLane="best" departSpeed="max" from="22738859" to="35356690"/>
    <trip id="veh65" type="veh_passenger" depart="418.70" departLane="best" from="245317930" to="456482267"/>
    <person id="ped54" type="ped_pedestrian" depart="424.79">
        <walk edges="245317925#0 1015988488#1 1015988488#0 711708389#1 711708389#2 711708391 355083424 355083421 355083423 238197666 878862912 878862911#1 878865705 878862905#0"/>
    </person>
    <trip id="veh66" type="veh_passenger" depart="425.14" departLane="best" departSpeed="max" from="22738859" to="22761597#1"/>
    <trip id="bus19" type="bus_bus" depart="429.79" departLane="best" departSpeed="max" from="914977491#0" to="4245637#1"/>
    <trip id="bike25" type="bike_bicycle" depart="430.50" departLane="best" from="-166104874#0" to="224042474"/>
    <person id="ped55" type="ped_pedestrian" depart="432.66">
        <walk edges="743184219#1 722094931#1 909949880#3 909949880#2 1076611437#1"/>
    </person>
    <trip id="truck45" type="truck_truck" depart="434.81" departLane="best" departSpeed="max" from="224057408#0" to="40122556#1"/>
    <trip id="truck46" type="truck_truck" depart="444.47" departLane="best" departSpeed="max" from="156420784" to="1074926268"/>
    <trip id="veh70" type="veh_passenger" depart="450.91" departLane="best" departSpeed="max" from="22738859" to="621030741#1"/>
    <person id="ped58" type="ped_pedestrian" depart="456.26">
        <walk edges="1192229717 1192229718 1077804815 295122031#2 295122031#3 850328349#1 561497026#3"/>
    </person>
    <trip id="veh72" type="veh_passenger" depart="463.79" departLane="best" departSpeed="max" from="909967551" to="456482267"/>
    <trip id="bike27" type="bike_bicycle" depart="464.95" departLane="best" from="245317925#2" to="245317925#2"/>
    <trip id="motorcycle25" type="motorcycle_motorcycle" depart="469.40" departLane="best" departSpeed="max" from="224039649" to="224039660#0"/>
    <trip id="veh73" type="veh_passenger" depart="470.23" departLane="best" from="423798481" to="645165804#1"/>
    <person id="ped60" type="ped_pedestrian" depart="471.99">
        <walk edges="665068135#3 909949880#2 909949880#3 722094931#1 749621678 749621679#1 749621679#0 749621680 711708389#2 711708389#3 711708396#1 675172195 675445995#0 675445997 675445993#1 711708399#1 688086638 665068147#1 369827665#0 711708400#3 572003068#0 361113855 361113856"/>
    </person>
    <trip id="bus21" type="bus_bus" depart="475.04" departLane="best" departSpeed="max" from="156420784" to="688086638"/>
    <trip id="veh74" type="veh_passenger" depart="476.68" departLane="best" from="678960768#1" to="22761597#0"/>
    <person id="ped61" type="ped_pedestrian" depart="479.86">
        <walk edges="675172196 711708397#0 711708396#1 675172195 675445995#0 675445997 675445993#1 711708399#1 688086638 665068147#1 369827665#0 711708400#3 572003068#0 361113855 361113856 361113853"/>
    </person>
    <trip id="truck50" type="truck_truck" depart="483.12" departLane="best" from="840378999" to="40122556#1"/>
    <trip id="veh76" type="veh_passenger" depart="489.56" departLane="best" from="369829204#1" to="423774438#0"/>
    <trip id="bus22" type="bus_bus" depart="497.66" departLane="best" departSpeed="max" from="4245528" to="22761597#1"/>
    <trip id="bike29" type="bike_bicycle" depart="499.39" departLane="best" departSpeed="max" from="-166104888#1" to="166104874#0"/>
    <trip id="veh78" type="veh_passenger" depart="502.44" departLane="best" departSpeed="max" from="914977491#0" to="1076611437#2"/>
    <trip id="veh79" type="veh_passenger" depart="508.88" departLane="best" from="369829204#0" to="245317928"/>
    <trip id="bus23" type="bus_bus" depart="520.28" departLane="best" from="369829204#0" to="156782727#1"/>
    <trip id="truck54" type="truck_truck" depart="521.77" departLane="best" from="22738849#2" to="245317930"/>
    <trip id="veh81" type="veh_passenger" depart="521.77" departLane="best" from="22731331#1" to="40122556#1"/>
    <person id="ped67" type="ped_pedestrian" depart="527.06">
        <walk edges="-245238968 -678960768#0 -678960768#1 -369829204#0 -369829204#1 -355084529 -355084526 -700820552 -245317925#0 1015988488#1 1015988488#0 711708389#1 749621680 749621679#0 749621679#1 749621678 722094931#1 909949880#3 909949880#2 665068135#3 665068135#2 665068135#1 238969210 167048050 295122031#1 295122031#2 295122031#3"/>
    </person>
    <trip id="veh82" type="veh_passenger" depart="528.21" departLane="best" from="369829204#1" to="245317923"/>
    <trip id="truck55" type="truck_truck" depart="531.43" departLane="best" departSpeed="max" from="632555185" to="4249937"/>
    <person id="ped69" type="ped_pedestrian" depart="542.79">
        <walk edges="665068147#1 688086638 711708399#1 675445993#1 675445997 675445995#0 675172195 711708396#1 711708389#3 711708389#2 749621680 749621679#0 749621679#1 749621678 722094931#1 909949880#3 909949880#2 -1076611437#2 -4245637#0"/>
    </person>
    <trip id="veh85" type="veh_passenger" depart="547.53" departLane="best" departSpeed="max" from="914977491#0" to="665068147#1"/>
    <person id="ped70" type="ped_pedestrian" depart="550.66">
        <walk edges="295122031#0 167048050 238969210 665068135#1 665068135#2 665068135#3 909949880#2 909949880#3 722094931#1 749621678 749621679#1 749621679#0 749621680 711708389#1 1015988488#0 1015988488#1 -245317925#0 -700820552 -355084526 -355084529 -369829204#1 -369829204#0 -678960768#1 369827665#2"/>
    </person>
    <trip id="truck57" type="truck_truck" depart="550.75" departLane="best" departSpeed="max" from="22738859" to="644875524"/>
    <trip id="bike32" type="bike_bicycle" depart="551.05" departLane="best" from="657272437" to="621030741#1"/>
    <trip id="veh87" type="veh_passenger" depart="560.42" departLane="best" departSpeed="max" from="4245528" to="22761597#1"/>
    <trip id="truck59" type="truck_truck" depart="570.08" departLane="best" departSpeed="max" from="914977491#0" to="644875507#0"/>
    <trip id="veh89" type="veh_passenger" depart="573.30" departLane="best" from="355084527" to="840378998"/>
    <trip id="bus26" type="bus_bus" depart="588.14" departLane="best" departSpeed="max" from="914977491#0" to="644875520"/>
    <trip id="veh92" type="veh_passenger" depart="592.62" departLane="best" departSpeed="max" from="909967551" to="840378999"/>
    <trip id="truck62" type="truck_truck" depart="599.07" departLane="best" from="22731331#1" to="-224042473"/>
    <trip id="motorcycle32" type="motorcycle_motorcycle" depart="600.84" departLane="best" from="1074348061#2" to="-224042474"/>
    <trip id="veh95" type="veh_passenger" depart="611.95" departLane="best" departSpeed="max" from="909967551" to="456482267"/>
    <trip id="truck64" type="truck_truck" depart="618.39" departLane="best" departSpeed="max" from="909967551" to="840378999"/>
    <trip id="veh96" type="veh_passenger" depart="618.39" departLane="best" from="621030728" to="644875507#1"/>
    <trip id="truck65" type="truck_truck" depart="628.05" departLane="best" from="369829204#0" to="462035256"/>
    <trip id="motorcycle34" type="motorcycle_motorcycle" depart="638.39" departLane="best" from="22761597#0" to="156782727#1"/>
    <trip id="truck67" type="truck_truck" depart="647.38" departLane="best" departSpeed="max" from="909967551" to="40122556#1"/>
    <trip id="veh101" type="veh_passenger" depart="650.60" departLane="best" departSpeed="max" from="22738859" to="156782727#1"/>
    <trip id="truck68" type="truck_truck" depart="657.04" departLane="best" from="355084527" to="621030741#1"/>
    <trip id="veh102" type="veh_passenger" depart="657.04" departLane="best" from="369829204#1" to="456482267"/>
    <trip id="veh104" type="veh_passenger" depart="669.92" departLane="best" from="22738847" to="644875492#1"/>
    <trip id="bike39" type="bike_bicycle" depart="671.59" departLane="best" from="-4914784#1" to="-4914784#0"/>
    <person id="ped86" type="ped_pedestrian" depart="676.52">
        <walk edges="295122023 1192230684 576201869 576201873 576201872 295122031#0 167048050 238969210 665068135#1 665068135#2 665068135#3 909949880#2 909949880#3 722094931#1 749621678 749621679#1 749621679#0 749621680 711708389#2 711708389#3 711708396#1 675172195 675445995#0 675445997 675445993#1"/>
    </person>
    <trip id="veh107" type="veh_passenger" depart="689.25" departLane="best" from="245317925#2" to="644875508"/>
    <person id="ped88" type="ped_pedestrian" depart="692.25">
        <walk edges="-245317925#1 1015988488#1 1015988488#0 711708389#1 749621680 749621679#0 749621679#1 749621678 722094931#1 909949880#3 909949880#2 665068135#3 665068135#2 665068135#1 238969210 167048050 295122031#1 295122031#2 295122031#3 850328349#1 561497026#2 37935481#4 37935481#5 37935481#6 37935481#7 22761597#0"/>
    </person>
    <trip id="veh108" type="veh_passenger" depart="695.69" departLane="best" departSpeed="max" from="914977491#0" to="840378999"/>
    <trip id="truck73" type="truck_truck" depart="705.35" departLane="best" from="700820554#0" to="156782727#0"/>
    <trip id="bike41" type="bike_bicycle" depart="706.03" departLane="best" from="22738849#0" to="700820554#2"/>
    <trip id="motorcycle38" type="motorcycle_motorcycle" depart="713.49" departLane="best" departSpeed="max" from="632555185" to="40122556#1"/>
    <person id="ped91" type="ped_pedestrian" depart="715.85">
        <walk edges="878865705 878862911#1 878862912 238197666 355083423 355083421 355083424 711708391 711708389#2 711708389#1 1015988488#0 1015988488#1 -245317925#1"/>
    </person>
    <trip id="truck75" type="truck_truck" depart="724.68" departLane="best" from="22738849#1" to="40122556#1"/>
    <trip id="veh114" type="veh_passenger" depart="734.34" departLane="best" from="644875495" to="840378998"/>
    <trip id="veh115" type="veh_passenger" depart="740.78" departLane="best" from="678960768#1" to="245317925#0"/>
    <trip id="bus33" type="bus_bus" depart="746.49" departLane="best" from="644875507#0" to="35356690"/>
    <trip id="veh116" type="veh_passenger" depart="747.22" departLane="best" departSpeed="max" from="224039649" to="156782727#0"/>
    <trip id="truck78" type="truck_truck" depart="753.66" departLane="best" from="156782224" to="22761597#1"/>
    <trip id="bike44" type="bike_bicycle" depart="757.69" departLane="best" departSpeed="max" from="-166104874#3" to="-166104874#0"/>
    <trip id="veh118" type="veh_passenger" depart="760.11" departLane="best" departSpeed="max" from="654885026" to="22761597#1"/>
    <person id="ped97" type="ped_pedestrian" depart="763.05">
        <walk edges="238197666 355083423 355083421 355083424 711708391 711708389#3 711708396#1 675172195 675445995#0 675445997 675445993#1 711708399#1 688086638 665068147#1 369827665#0 711708400#3"/>
    </person>
    <trip id="motorcycle41" type="motorcycle_motorcycle" depart="769.82" departLane="best" from="700820554#2" to="667228839"/>
    <person id="ped99" type="ped_pedestrian" depart="778.79">
        <walk edges="909970046 37935481#6 37935481#5 37935481#4 561497026#2 850328349#1 295122031#3 295122031#2 295122031#1 167048050 238969210 665068135#1 665068135#2 665068135#3 909949880#2 909949880#3 722094931#1 749621678 749621679#1 749621679#0 749621680 711708389#2 711708389#3 711708397#0 711708392 1074926268 711708395"/>
    </person>
    <trip id="veh121" type="veh_passenger" depart="779.43" departLane="best" from="369829204#1" to="245317923"/>
    <trip id="motorcycle42" type="motorcycle_motorcycle" depart="788.60" departLane="best" from="644875520" to="40122556#1"/>
    <trip id="truck82" type="truck_truck" depart="792.31" departLane="best" from="678960768#1" to="665068136#1"/>
    <trip id="veh123" type="veh_passenger" depart="792.31" departLane="best" from="644875507#1" to="22761597#1"/>
    <person id="ped101" type="ped_pedestrian" depart="794.52">
        <walk edges="711708398 711708400#3 369827665#0 665068147#1 -665068147#0"/>
    </person>
    <trip id="truck83" type="truck_truck" depart="801.98" departLane="best" from="423798481" to="775216094"/>
    <trip id="veh125" type="veh_passenger" depart="805.20" departLane="best" from="369829204#1" to="-224039649"/>
    <trip id="bike47" type="bike_bicycle" depart="809.35" departLane="best" from="-166104874#0" to="166104874#0"/>
    <trip id="veh127" type="veh_passenger" depart="818.08" departLane="best" from="840378999" to="4245637#1"/>
    <trip id="truck85" type="truck_truck" depart="821.30" departLane="best" departSpeed="max" from="654885026" to="-224042474"/>
    <trip id="veh128" type="veh_passenger" depart="824.52" departLane="best" from="700820554#0" to="456482267"/>
    <person id="ped105" type="ped_pedestrian" depart="825.98">
        <walk edges="1076611437#1 909949880#2 909949880#3 722094931#1 749621678 749621679#1 749621679#0 749621680 711708389#2 711708389#3 711708396#1 675172195 675445995#0 675445997 675445993#1"/>
    </person>
    <trip id="veh130" type="veh_passenger" depart="837.40" departLane="best" from="678960768#0" to="667228840#0"/>
    <trip id="veh131" type="veh_passenger" depart="843.85" departLane="best" from="840378998" to="22761597#1"/>
    <person id="ped109" type="ped_pedestrian" depart="857.45">
        <walk edges="-645165804#1 -645165804#0 195513140#1 -369829204#1 -355084529 -355084526 -700820552 -245317925#0 1015988488#1 1015988488#0 711708389#1 749621680 749621679#0 749621679#1 749621678 722094931#1 909949880#3 909949880#2 665068135#3"/>
        <walk edges="149828221#0 149828221#1 37927947#1"/>
        <walk edges="1192229717"/>
    </person>
    <trip id="truck89" type="truck_truck" depart="859.95" departLane="best" from="245317925#2" to="665068136#1"/>
    <person id="ped110" type="ped_pedestrian" depart="865.32">
        <walk edges="878862911#1 878862912 238197666 355083423 355083421 355083424 711708391 711708389#2 749621680 749621679#0 749621679#1 749621678 722094931#1 909949880#3 909949880#2 665068135#3 665068135#2 665068135#1 238969210 167048050 295122031#1 295122031#2 295122031#3 30260201 37935481#2"/>
    </person>
    <person id="ped111" type="ped_pedestrian" depart="873.18">