<?xml version="1.0" encoding="UTF-8"?>

<!-- generated on 2024-03-25 15:56:10.629442 by osmWebWizard.py v1_19_0+0000-baa66a0f364
<configuration>
    <net-file value="C:\Users\Gabe Piano\Sumo\2024-03-25-15-55-45\osm.net.xml.gz"/>
    <output-trip-file value="C:\Users\Gabe Piano\Sumo\2024-03-25-15-55-45\osm.motorcycle.trips.xml"/>
    <route-file value="C:\Users\Gabe Piano\Sumo\2024-03-25-15-55-45\osm.motorcycle.rou.xml"/>
    <prefix value="motorcycle"/>
    <trip-attributes value="departLane=&quot;best&quot;"/>
    <fringe-start-attributes value="departSpeed=&quot;max&quot;"/>
    <vehicle-class value="motorcycle"/>
    <fringe-factor value="2"/>
    <vclass value="motorcycle"/>
    <via-edge-types value="highway.motorway,highway.motorway_link,highway.trunk_link,highway.primary_link,highway.secondary_link,highway.tertiary_link"/>
    <max-distance value="1200.0"/>
    <remove-loops value="True"/>
    <validate value="True"/>
    <insertion-density value="4.0"/>
</configuration>
-->

<!-- generated on 2024-03-25 15:56:10 by Eclipse SUMO duarouter Version 1.19.0
<configuration xmlns:xsi="http://www.w3.org/2001/XMLSchema-instance" xsi:noNamespaceSchemaLocation="http://sumo.dlr.de/xsd/duarouterConfiguration.xsd">

    <input>
        <net-file value="C:\Users\Gabe Piano\Sumo\2024-03-25-15-55-45\osm.net.xml.gz"/>
        <route-files value="C:\Users\Gabe Piano\Sumo\2024-03-25-15-55-45\osm.motorcycle.trips.xml"/>
    </input>

    <output>
        <output-file value="C:\Users\Gabe Piano\Sumo\2024-03-25-15-55-45\osm.motorcycle.trips.xml.tmp"/>
        <alternatives-output value="NUL"/>
        <write-trips value="true"/>
    </output>

    <processing>
        <remove-loops value="true"/>
    </processing>

    <time>
        <begin value="0.0"/>
        <end value="3600.0"/>
    </time>

    <report>
        <no-warnings value="true"/>
        <ignore-errors value="true"/>
        <no-step-log value="true"/>
    </report>

</configuration>
-->

<routes xmlns:xsi="http://www.w3.org/2001/XMLSchema-instance" xsi:noNamespaceSchemaLocation="http://sumo.dlr.de/xsd/routes_file.xsd">
    <vType id="motorcycle_motorcycle" vClass="motorcycle"/>
    <trip id="motorcycle0" type="motorcycle_motorcycle" depart="0.00" departLane="best" from="665214718#1" to="651080002"/>
    <trip id="motorcycle2" type="motorcycle_motorcycle" depart="20.01" departLane="best" from="651079976" to="573710407"/>
    <trip id="motorcycle4" type="motorcycle_motorcycle" depart="40.03" departLane="best" from="-690613619" to="-690613619"/>
    <trip id="motorcycle6" type="motorcycle_motorcycle" depart="60.04" departLane="best" from="651079972" to="628567782#0"/>
    <trip id="motorcycle7" type="motorcycle_motorcycle" depart="70.04" departLane="best" from="624604434#0" to="870991319#1"/>
    <trip id="motorcycle8" type="motorcycle_motorcycle" depart="80.05" departLane="best" from="690613625#1" to="642896772"/>
    <trip id="motorcycle9" type="motorcycle_motorcycle" depart="90.06" departLane="best" from="993441705" to="561748189"/>
    <trip id="motorcycle14" type="motorcycle_motorcycle" depart="140.09" departLane="best" from="690613619" to="561748189"/>
    <trip id="motorcycle15" type="motorcycle_motorcycle" depart="150.09" departLane="best" from="-111987010#0" to="-642893603"/>
    <trip id="motorcycle16" type="motorcycle_motorcycle" depart="160.10" departLane="best" from="-684437040" to="684437040"/>
    <trip id="motorcycle17" type="motorcycle_motorcycle" depart="170.11" departLane="best" from="183689805#1" to="573710409#0"/>
    <trip id="motorcycle21" type="motorcycle_motorcycle" depart="210.13" departLane="best" from="183685561" to="-690613619"/>
    <trip id="motorcycle22" type="motorcycle_motorcycle" depart="220.14" departLane="best" from="758887472" to="1033118917#1"/>
    <trip id="motorcycle23" type="motorcycle_motorcycle" depart="230.14" departLane="best" from="894843877#2" to="-690613619"/>
    <trip id="motorcycle24" type="motorcycle_motorcycle" depart="240.15" departLane="best" from="574917575#1" to="879172124"/>
    <trip id="motorcycle25" type="motorcycle_motorcycle" depart="250.16" departLane="best" from="993441705" to="767517245"/>
    <trip id="motorcycle27" type="motorcycle_motorcycle" depart="270.17" departLane="best" from="-918082989" to="-879177025#1"/>
    <trip id="motorcycle28" type="motorcycle_motorcycle" depart="280.18" departLane="best" from="624604435#0" to="651080002"/>
    <trip id="motorcycle29" type="motorcycle_motorcycle" depart="290.18" departLane="best" from="561748193" to="-918082989"/>
    <trip id="motorcycle30" type="motorcycle_motorcycle" depart="300.19" departLane="best" from="993441705" to="993441705"/>
    <trip id="motorcycle31" type="motorcycle_motorcycle" depart="310.19" departLane="best" from="870991315#1" to="870991315#1"/>
    <trip id="motorcycle32" type="motorcycle_motorcycle" depart="320.20" departLane="best" from="-111987075" to="-879177025#0"/>
    <trip id="motorcycle33" type="motorcycle_motorcycle" depart="330.21" departLane="best" from="111987010#1" to="690613625#1"/>
    <trip id="motorcycle34" type="motorcycle_motorcycle" depart="340.21" departLane="best" from="366949696" to="870991328#0"/>
    <trip id="motorcycle36" type="motorcycle_motorcycle" depart="360.23" departLane="best" from="-1095862682#1" to="684437041"/>
    <trip id="motorcycle42" type="motorcycle_motorcycle" depart="420.26" departLane="best" from="758880904#1" to="870991314#1"/>
    <trip id="motorcycle43" type="motorcycle_motorcycle" depart="430.27" departLane="best" from="690613620#1" to="-690613625#0"/>
    <trip id="motorcycle44" type="motorcycle_motorcycle" depart="440.28" departLane="best" departSpeed="max" from="870991315#0" to="870991314#0"/>
    <trip id="motorcycle46" type="motorcycle_motorcycle" depart="460.29" departLane="best" from="651079971" to="114213957#1"/>
    <trip id="motorcycle47" type="motorcycle_motorcycle" depart="470.30" departLane="best" from="894843877#1" to="561748193"/>
    <trip id="motorcycle48" type="motorcycle_motorcycle" depart="480.30" departLane="best" from="-918082989" to="-690613625#1"/>
    <trip id="motorcycle50" type="motorcycle_motorcycle" depart="500.31" departLane="best" from="662913537#0" to="1103029835#2"/>
    <trip id="motorcycle52" type="motorcycle_motorcycle" depart="520.33" departLane="best" from="-111987075" to="-642893603"/>
    <trip id="motorcycle54" type="motorcycle_motorcycle" depart="540.34" departLane="best" from="183689805#1" to="870991328#0"/>
    <trip id="motorcycle56" type="motorcycle_motorcycle" depart="560.35" departLane="best" from="651080031" to="1054125801#0"/>
    <trip id="motorcycle57" type="motorcycle_motorcycle" depart="570.36" departLane="best" from="624604435#0" to="-690613620#0"/>
    <trip id="motorcycle58" type="motorcycle_motorcycle" depart="580.36" departLane="best" from="759516987#2" to="158466192#1"/>
    <trip id="motorcycle59" type="motorcycle_motorcycle" depart="590.37" departLane="best" from="870991319#1" to="665214718#1"/>
    <trip id="motorcycle63" type="motorcycle_motorcycle" depart="630.40" departLane="best" departSpeed="max" from="1095862682#0" to="684437040"/>
    <trip id="motorcycle64" type="motorcycle_motorcycle" depart="640.40" departLane="best" from="651079976" to="683268248#1"/>
    <trip id="motorcycle65" type="motorcycle_motorcycle" depart="650.41" departLane="best" from="879177024#1" to="1033158919#1"/>
    <trip id="motorcycle66" type="motorcycle_motorcycle" depart="660.41" departLane="best" from="111987010#0" to="111987010#1"/>
    <trip id="motorcycle68" type="motorcycle_motorcycle" depart="680.43" departLane="best" from="-690613625#0" to="-111987075"/>
    <trip id="motorcycle69" type="motorcycle_motorcycle" depart="690.43" departLane="best" from="660352567" to="628567782#1"/>
    <trip id="motorcycle71" type="motorcycle_motorcycle" depart="710.45" departLane="best" from="775185678" to="624604435#0"/>
    <trip id="motorcycle72" type="motorcycle_motorcycle" depart="720.45" departLane="best" from="-690613625#0" to="-879177025#1"/>
    <trip id="motorcycle73" type="motorcycle_motorcycle" depart="730.46" departLane="best" from="665214718#1" to="884613952"/>
    <trip id="motorcycle74" type="motorcycle_motorcycle" depart="740.47" departLane="best" from="573710409#0" to="183690512#2"/>
    <trip id="motorcycle75" type="motorcycle_motorcycle" depart="750.47" departLane="best" from="1198531265" to="662913524"/>
    <trip id="motorcycle76" type="motorcycle_motorcycle" depart="760.48" departLane="best" departSpeed="max" from="109984882#0" to="-183543979#0"/>
    <trip id="motorcycle77" type="motorcycle_motorcycle" depart="770.48" departLane="best" from="1054125801#0" to="-690613625#1"/>
    <trip id="motorcycle80" type="motorcycle_motorcycle" depart="800.50" departLane="best" from="660352567" to="651079971"/>
    <trip id="motorcycle81" type="motorcycle_motorcycle" depart="810.51" departLane="best" from="366949696" to="-690613625#0"/>
    <trip id="motorcycle84" type="motorcycle_motorcycle" depart="840.53" departLane="best" from="1033158925#0" to="1054125801#0"/>
    <trip id="motorcycle85" type="motorcycle_motorcycle" depart="850.53" departLane="best" from="660352572#2" to="-759383455#0"/>
    <trip id="motorcycle86" type="motorcycle_motorcycle" depart="860.54" departLane="best" from="183685561" to="158466192#1"/>
    <trip id="motorcycle87" type="motorcycle_motorcycle" depart="870.55" departLane="best" from="879172124" to="111987010#1"/>
    <trip id="motorcycle88" type="motorcycle_motorcycle" depart="880.55" departLane="best" from="690613625#1" to="1054125801#0"/>
    <trip id="motorcycle89" type="motorcycle_motorcycle" depart="890.56" departLane="best" departSpeed="max" from="651079954#0" to="628567782#0"/>
    <trip id="motorcycle91" type="motorcycle_motorcycle" depart="910.57" departLane="best" from="651080002" to="-918082989"/>
    <trip id="motorcycle92" type="motorcycle_motorcycle" depart="920.58" departLane="best" from="1033118917#0" to="1103029835#1"/>
    <trip id="motorcycle93" type="motorcycle_motorcycle" depart="930.58" departLane="best" from="660352567" to="660352572#1"/>
    <trip id="motorcycle94" type="motorcycle_motorcycle" depart="940.59" departLane="best" from="366952449#1" to="-651079992"/>
    <trip id="motorcycle97" type="motorcycle_motorcycle" depart="970.61" departLane="best" from="1103029873" to="1103029862#1"/>
    <trip id="motorcycle98" type="motorcycle_motorcycle" depart="980.62" departLane="best" from="1033158919#1" to="-111987010#0"/>
    <trip id="motorcycle100" type="motorcycle_motorcycle" depart="1000.63" departLane="best" from="574917575#1" to="872215569"/>
    <trip id="motorcycle101" type="motorcycle_motorcycle" depart="1010.63" departLane="best" from="759516987#2" to="366949696"/>
    <trip id="motorcycle102" type="motorcycle_motorcycle" depart="1020.64" departLane="best" from="870991315#1" to="870991314#1"/>
    <trip id="motorcycle103" type="motorcycle_motorcycle" depart="1030.65" departLane="best" from="1103029814#1" to="1103029833#1"/>
    <trip id="motorcycle105" type="motorcycle_motorcycle" depart="1050.66" departLane="best" from="894843877#1" to="183690512#3"/>
    <trip id="motorcycle106" type="motorcycle_motorcycle" depart="1060.67" departLane="best" from="114213935#2" to="1103029835#2"/>
    <trip id="motorcycle107" type="motorcycle_motorcycle" depart="1070.67" departLane="best" departSpeed="max" from="1095862682#0" to="1095862682#1"/>
    <trip id="motorcycle108" type="motorcycle_motorcycle" depart="1080.68" departLane="best" from="870991319#1" to="651080031"/>
    <trip id="motorcycle112" type="motorcycle_motorcycle" depart="1120.70" departLane="best" from="651079971" to="628567782#1"/>
    <trip id="motorcycle114" type="motorcycle_motorcycle" depart="1140.72" departLane="best" from="651079972" to="1103029835#1"/>
    <trip id="motorcycle115" type="motorcycle_motorcycle" depart="1150.72" departLane="best" from="111987075" to="690613620#1"/>
    <trip id="motorcycle116" type="motorcycle_motorcycle" depart="1160.73" departLane="best" departSpeed="max" from="183685560#0" to="651080025"/>
    <trip id="motorcycle117" type="motorcycle_motorcycle" depart="1170.74" departLane="best" from="651080025" to="624604434#0"/>
    <trip id="motorcycle118" type="motorcycle_motorcycle" depart="1180.74" departLane="best" from="690613620#1" to="1054125801#1"/>
    <trip id="motorcycle119" type="motorcycle_motorcycle" depart="1190.75" departLane="best" from="-111987075" to="871213663#0"/>
    <trip id="motorcycle120" type="motorcycle_motorcycle" depart="1200.75" departLane="best" from="1103029835#1" to="1157435279#0"/>
    <trip id="motorcycle121" type="motorcycle_motorcycle" depart="1210.76" departLane="best" from="879177025#0" to="879177024#1"/>
    <trip id="motorcycle122" type="motorcycle_motorcycle" depart="1220.77" departLane="best" from="651080025" to="665214718#1"/>
    <trip id="motorcycle123" type="motorcycle_motorcycle" depart="1230.77" departLane="best" from="684437040" to="684437041"/>
    <trip id="motorcycle126" type="motorcycle_motorcycle" depart="1260.79" departLane="best" departSpeed="max" from="1095862682#0" to="-93407108"/>
    <trip id="motorcycle127" type="motorcycle_motorcycle" depart="1270.80" departLane="best" from="690613620#1" to="366952449#1"/>
    <trip id="motorcycle128" type="motorcycle_motorcycle" depart="1280.80" departLane="best" from="624604436" to="-690613619"/>
    <trip id="motorcycle129" type="motorcycle_motorcycle" depart="1290.81" departLane="best" from="759516987#2" to="-690613619"/>
    <trip id="motorcycle130" type="motorcycle_motorcycle" depart="1300.82" departLane="best" from="758887472" to="574917570#1"/>
    <trip id="motorcycle131" type="motorcycle_motorcycle" depart="1310.82" departLane="best" from="651079990" to="1054125801#0"/>
    <trip id="motorcycle134" type="motorcycle_motorcycle" depart="1340.84" departLane="best" departSpeed="max" from="870991315#0" to="574917579#1"/>
    <trip id="motorcycle135" type="motorcycle_motorcycle" depart="1350.85" departLane="best" departSpeed="max" from="1157435280#0" to="1103029863#1"/>
    <trip id="motorcycle136" type="motorcycle_motorcycle" depart="1360.85" departLane="best" from="114213935#1" to="662913519#1"/>
    <trip id="motorcycle137" type="motorcycle_motorcycle" depart="1370.86" departLane="best" from="651080002" to="183690512#3"/>
    <trip id="motorcycle139" type="motorcycle_motorcycle" depart="1390.87" departLane="best" from="651080031" to="183690512#3"/>
    <trip id="motorcycle141" type="motorcycle_motorcycle" depart="1410.89" departLane="best" from="1054125801#0" to="-797720294"/>
    <trip id="motorcycle142" type="motorcycle_motorcycle" depart="1420.89" departLane="best" from="1033118917#1" to="114213935#1"/>
    <trip id="motorcycle143" type="motorcycle_motorcycle" depart="1430.90" departLane="best" from="871213663#0" to="870991314#0"/>
    <trip id="motorcycle144" type="motorcycle_motorcycle" depart="1440.90" departLane="best" from="660352585" to="1157435279#1"/>
    <trip id="motorcycle146" type="motorcycle_motorcycle" depart="1460.92" departLane="best" from="1103029872" to="1103029862#1"/>
    <trip id="motorcycle147" type="motorcycle_motorcycle" depart="1470.92" departLane="best" from="662913537#0" to="758887472"/>
    <trip id="motorcycle148" type="motorcycle_motorcycle" depart="1480.93" departLane="best" from="690613620#1" to="870991319#1"/>
    <trip id="motorcycle149" type="motorcycle_motorcycle" depart="1490.94" departLane="best" from="1103029872" to="660352585"/>
    <trip id="motorcycle151" type="motorcycle_motorcycle" depart="1510.95" departLane="best" from="1103029814#1" to="1157435279#0"/>
    <trip id="motorcycle153" type="motorcycle_motorcycle" depart="1530.96" departLane="best" from="-879177024#0" to="-111987010#0"/>
    <trip id="motorcycle156" type="motorcycle_motorcycle" depart="1560.98" departLane="best" departSpeed="max" from="665214722" to="180087573"/>
    <trip id="motorcycle157" type="motorcycle_motorcycle" depart="1570.99" departLane="best" from="879177024#1" to="870991328#0"/>
    <trip id="motorcycle158" type="motorcycle_motorcycle" depart="1580.99" departLane="best" from="114213938" to="544489112"/>
    <trip id="motorcycle159" type="motorcycle_motorcycle" depart="1591.00" departLane="best" departSpeed="max" from="870991315#0" to="574917570#1"/>
    <trip id="motorcycle161" type="motorcycle_motorcycle" depart="1611.01" departLane="best" from="573710409#0" to="-690613620#0"/>
    <trip id="motorcycle163" type="motorcycle_motorcycle" depart="1631.02" departLane="best" from="759383455#1" to="660352572#1"/>
    <trip id="motorcycle164" type="motorcycle_motorcycle" depart="1641.03" departLane="best" departSpeed="max" from="-684437041" to="1095862682#1"/>
    <trip id="motorcycle165" type="motorcycle_motorcycle" depart="1651.04" departLane="best" from="759516987#2" to="158466192#1"/>
    <trip id="motorcycle166" type="motorcycle_motorcycle" depart="1661.04" departLane="best" from="870991328#0" to="624604435#0"/>
    <trip id="motorcycle168" type="motorcycle_motorcycle" depart="1681.06" departLane="best" from="1157435280#1" to="628567782#0"/>
    <trip id="motorcycle169" type="motorcycle_motorcycle" depart="1691.06" departLane="best" from="1090755561#1" to="1157435279#1"/>
    <trip id="motorcycle170" type="motorcycle_motorcycle" depart="1701.07" departLane="best" from="561748193" to="366952449#1"/>
    <trip id="motorcycle172" type="motorcycle_motorcycle" depart="1721.08" departLane="best" departSpeed="max" from="1095862682#0" to="1095862682#1"/>
    <trip id="motorcycle173" type="motorcycle_motorcycle" depart="1731.09" departLane="best" from="111987010#0" to="690613617"/>
    <trip id="motorcycle175" type="motorcycle_motorcycle" depart="1751.10" departLane="best" from="-872215578" to="871213663#1"/>
    <trip id="motorcycle176" type="motorcycle_motorcycle" depart="1761.11" departLane="best" from="561748189" to="-690613625#1"/>
    <trip id="motorcycle177" type="motorcycle_motorcycle" depart="1771.11" departLane="best" from="1157435280#1" to="660352567"/>
    <trip id="motorcycle178" type="motorcycle_motorcycle" depart="1781.12" departLane="best" departSpeed="max" from="870991315#0" to="1103029872"/>
    <trip id="motorcycle179" type="motorcycle_motorcycle" depart="1791.12" departLane="best" from="894843877#1" to="-690613620#0"/>
    <trip id="motorcycle180" type="motorcycle_motorcycle" depart="1801.13" departLane="best" from="111987010#1" to="690613625#1"/>
    <trip id="motorcycle181" type="motorcycle_motorcycle" depart="1811.14" departLane="best" departSpeed="max" from="114216292" to="651079972"/>
    <trip id="motorcycle182" type="motorcycle_motorcycle" depart="1821.14" departLane="best" from="665214718#1" to="366949696"/>
    <trip id="motorcycle183" type="motorcycle_motorcycle" depart="1831.15" departLane="best" from="1095862682#1" to="1095862682#1"/>
    <trip id="motorcycle185" type="motorcycle_motorcycle" depart="1851.16" departLane="best" from="690613617" to="651080031"/>
    <trip id="motorcycle186" type="motorcycle_motorcycle" depart="1861.17" departLane="best" from="690613625#1" to="366952449#1"/>
    <trip id="motorcycle188" type="motorcycle_motorcycle" depart="1881.18" departLane="best" from="111987010#1" to="690613620#1"/>
    <trip id="motorcycle189" type="motorcycle_motorcycle" depart="1891.19" departLane="best" from="892972017#1" to="651079971"/>
    <trip id="motorcycle191" type="motorcycle_motorcycle" depart="1911.20" departLane="best" from="1033158919#1" to="884613952"/>
    <trip id="motorcycle192" type="motorcycle_motorcycle" depart="1921.21" departLane="best" from="-918082989" to="-879177025#1"/>
    <trip id="motorcycle193" type="motorcycle_motorcycle" depart="1931.21" departLane="best" from="1103029873" to="879172124"/>
    <trip id="motorcycle195" type="motorcycle_motorcycle" depart="1951.23" departLane="best" from="879172124" to="111987010#1"/>
    <trip id="motorcycle196" type="motorcycle_motorcycle" depart="1961.23" departLane="best" from="624604436" to="775185677"/>
    <trip id="motorcycle198" type="motorcycle_motorcycle" depart="1981.24" departLane="best" from="573710409#0" to="183690512#2"/>
    <trip id="motorcycle199" type="motorcycle_motorcycle" depart="1991.25" departLane="best" from="1033158925#1" to="624604436"/>
    <trip id="motorcycle200" type="motorcycle_motorcycle" depart="2001.26" departLane="best" from="1103029856#1" to="660352585"/>
    <trip id="motorcycle201" type="motorcycle_motorcycle" depart="2011.26" departLane="best" from="892972017#1" to="-759383469"/>
    <trip id="motorcycle202" type="motorcycle_motorcycle" depart="2021.27" departLane="best" from="114213938" to="628567782#1"/>
    <trip id="motorcycle205" type="motorcycle_motorcycle" depart="2051.29" departLane="best" from="-111987010#0" to="-544489067#0"/>
    <trip id="motorcycle208" type="motorcycle_motorcycle" depart="2081.31" departLane="best" from="574917579#1" to="872215569"/>
    <trip id="motorcycle209" type="motorcycle_motorcycle" depart="2091.31" departLane="best" from="651080033#1" to="-759383455#0"/>
    <trip id="motorcycle210" type="motorcycle_motorcycle" depart="2101.32" departLane="best" from="879172096" to="683268248#1"/>
    <trip id="motorcycle211" type="motorcycle_motorcycle" depart="2111.33" departLane="best" from="1033158925#0" to="366952449#1"/>
    <trip id="motorcycle212" type="motorcycle_motorcycle" depart="2121.33" departLane="best" from="-93407108" to="93407108"/>
    <trip id="motorcycle213" type="motorcycle_motorcycle" depart="2131.34" departLane="best" from="183689805#1" to="884613952"/>
    <trip id="motorcycle215" type="motorcycle_motorcycle" depart="2151.35" departLane="best" from="624604434#0" to="-918082989"/>
    <trip id="motorcycle216" type="motorcycle_motorcycle" depart="2161.36" departLane="best" departSpeed="max" from="651079954#0" to="628567782#1"/>
    <trip id="motorcycle217" type="motorcycle_motorcycle" depart="2171.36" departLane="best" from="879177024#1" to="690613620#1"/>
    <trip id="motorcycle218" type="motorcycle_motorcycle" depart="2181.37" departLane="best" from="871213663#0" to="870991314#1"/>
    <trip id="motorcycle220" type="motorcycle_motorcycle" depart="2201.38" departLane="best" from="1103029872" to="1103029873"/>
    <trip id="motorcycle221" type="motorcycle_motorcycle" depart="2211.39" departLane="best" from="651079972" to="660352567"/>
    <trip id="motorcycle223" type="motorcycle_motorcycle" depart="2231.40" departLane="best" from="1103029835#1" to="1103029814#1"/>
    <trip id="motorcycle224" type="motorcycle_motorcycle" depart="2241.41" departLane="best" from="1103029858#1" to="1103029872"/>
    <trip id="motorcycle225" type="motorcycle_motorcycle" depart="2251.41" departLane="best" from="-918082989" to="-690613625#1"/>
    <trip id="motorcycle226" type="motorcycle_motorcycle" depart="2261.42" departLane="best" from="1103029833#0" to="1103029814#1"/>
    <trip id="motorcycle227" type="motorcycle_motorcycle" depart="2271.43" departLane="best" from="660352585" to="1103029863#2"/>
    <trip id="motorcycle229" type="motorcycle_motorcycle" depart="2291.44" departLane="best" from="573710409#0" to="-918082989"/>
    <trip id="motorcycle231" type="motorcycle_motorcycle" depart="2311.45" departLane="best" from="574917575#1" to="872215569"/>
    <trip id="motorcycle232" type="motorcycle_motorcycle" depart="2321.46" departLane="best" from="1033158925#0" to="884613952"/>
    <trip id="motorcycle233" type="motorcycle_motorcycle" depart="2331.46" departLane="best" from="894843877#2" to="-690613617"/>
    <trip id="motorcycle235" type="motorcycle_motorcycle" depart="2351.48" departLane="best" from="-918082989" to="-879177025#1"/>
    <trip id="motorcycle237" type="motorcycle_motorcycle" depart="2371.49" departLane="best" from="690613620#1" to="870991328#0"/>
    <trip id="motorcycle238" type="motorcycle_motorcycle" depart="2381.50" departLane="best" from="-690613625#1" to="-879177025#1"/>
    <trip id="motorcycle239" type="motorcycle_motorcycle" depart="2391.50" departLane="best" from="690613617" to="651080002"/>
    <trip id="motorcycle240" type="motorcycle_motorcycle" depart="2401.51" departLane="best" from="1033158919#1" to="-797720294"/>
    <trip id="motorcycle242" type="motorcycle_motorcycle" depart="2421.52" departLane="best" from="-879177024#0" to="-879177024#0"/>
    <trip id="motorcycle243" type="motorcycle_motorcycle" depart="2431.53" departLane="best" from="183685561" to="561748193"/>
    <trip id="motorcycle247" type="motorcycle_motorcycle" depart="2471.55" departLane="best" from="561748189" to="-690613625#1"/>
    <trip id="motorcycle249" type="motorcycle_motorcycle" depart="2491.56" departLane="best" from="651079971" to="1157435279#1"/>
    <trip id="motorcycle250" type="motorcycle_motorcycle" depart="2501.57" departLane="best" from="651080025" to="561748193"/>
    <trip id="motorcycle253" type="motorcycle_motorcycle" depart="2531.59" departLane="best" from="662913537#0" to="1103029856#1"/>
    <trip id="motorcycle254" type="motorcycle_motorcycle" depart="2541.60" departLane="best" from="624604435#0" to="651080002"/>
    <trip id="motorcycle255" type="motorcycle_motorcycle" depart="2551.60" departLane="best" from="1103029858#1" to="1103029833#1"/>
    <trip id="motorcycle258" type="motorcycle_motorcycle" depart="2581.62" departLane="best" from="758880904#1" to="871213663#0"/>
    <trip id="motorcycle259" type="motorcycle_motorcycle" depart="2591.63" departLane="best" from="580815653#2" to="884613952"/>
    <trip id="motorcycle261" type="motorcycle_motorcycle" depart="2611.64" departLane="best" from="879177025#1" to="690613625#1"/>
    <trip id="motorcycle262" type="motorcycle_motorcycle" depart="2621.65" departLane="best" from="993441705" to="183690512#2"/>
    <trip id="motorcycle264" type="motorcycle_motorcycle" depart="2641.66" departLane="best" from="879177024#1" to="894843877#1"/>
    <trip id="motorcycle265" type="motorcycle_motorcycle" depart="2651.67" departLane="best" from="183685561" to="775185677"/>
    <trip id="motorcycle266" type="motorcycle_motorcycle" depart="2661.67" departLane="best" from="870991328#1" to="-879177024#0"/>
    <trip id="motorcycle267" type="motorcycle_motorcycle" depart="2671.68" departLane="best" from="1033118917#0" to="660352585"/>
    <trip id="motorcycle269" type="motorcycle_motorcycle" depart="2691.69" departLane="best" from="114213935#1" to="628567782#1"/>
    <trip id="motorcycle270" type="motorcycle_motorcycle" depart="2701.70" departLane="best" from="183690512#2" to="183690512#3"/>
    <trip id="motorcycle271" type="motorcycle_motorcycle" depart="2711.70" departLane="best" from="870991328#1" to="-690613625#0"/>
    <trip id="motorcycle274" type="motorcycle_motorcycle" depart="2741.72" departLane="best" from="690613619" to="561748189"/>
    <trip id="motorcycle275" type="motorcycle_motorcycle" depart="2751.73" departLane="best" departSpeed="max" from="870991315#0" to="871213663#0"/>
    <trip id="motorcycle278" type="motorcycle_motorcycle" depart="2781.75" departLane="best" from="624604434#0" to="683268248#1"/>
    <trip id="motorcycle281" type="motorcycle_motorcycle" depart="2811.77" departLane="best" from="573710409#0" to="775185677"/>
    <trip id="motorcycle282" type="motorcycle_motorcycle" depart="2821.77" departLane="best" from="-690613617" to="-111987075"/>
    <trip id="motorcycle285" type="motorcycle_motorcycle" depart="2851.79" departLane="best" from="1103029835#2" to="1103029873"/>
    <trip id="motorcycle286" type="motorcycle_motorcycle" depart="2861.80" departLane="best" from="690613619" to="624604435#0"/>
    <trip id="motorcycle287" type="motorcycle_motorcycle" depart="2871.80" departLane="best" from="870991328#0" to="894843877#1"/>
    <trip id="motorcycle288" type="motorcycle_motorcycle" depart="2881.81" departLane="best" from="1090755562#1" to="628567782#1"/>
    <trip id="motorcycle289" type="motorcycle_motorcycle" depart="2891.82" departLane="best" from="1103029863#1" to="1103029862#1"/>
    <trip id="motorcycle290" type="motorcycle_motorcycle" depart="2901.82" departLane="best" from="892972017#1" to="-759383469"/>
    <trip id="motorcycle291" type="motorcycle_motorcycle" depart="2911.83" departLane="best" from="884613952" to="884613952"/>
    <trip id="motorcycle294" type="motorcycle_motorcycle" depart="2941.85" departLane="best" from="894843877#2" to="651080031"/>
    <trip id="motorcycle295" type="motorcycle_motorcycle" depart="2951.85" departLane="best" departSpeed="max" from="-1095862682#2" to="-1095862682#1"/>
    <trip id="motorcycle296" type="motorcycle_motorcycle" depart="2961.86" departLane="best" from="544489112" to="544489068#1"/>
    <trip id="motorcycle297" type="motorcycle_motorcycle" depart="2971.87" departLane="best" from="690613617" to="624604434#0"/>
    <trip id="motorcycle298" type="motorcycle_motorcycle" depart="2981.87" departLane="best" from="111987075" to="879177024#1"/>
    <trip id="motorcycle300" type="motorcycle_motorcycle" depart="3001.89" departLane="best" from="1103029858#1" to="1103029833#1"/>
    <trip id="motorcycle302" type="motorcycle_motorcycle" depart="3021.90" departLane="best" departSpeed="max" from="759383438" to="660352572#2"/>
    <trip id="motorcycle303" type="motorcycle_motorcycle" depart="3031.90" departLane="best" from="1103029835#1" to="628567782#0"/>
    <trip id="motorcycle304" type="motorcycle_motorcycle" depart="3041.91" departLane="best" from="660352572#1" to="651079971"/>
    <trip id="motorcycle305" type="motorcycle_motorcycle" depart="3051.92" departLane="best" from="366949696" to="-797720294"/>
    <trip id="motorcycle306" type="motorcycle_motorcycle" depart="3061.92" departLane="best" from="-544489067#0" to="1103029873"/>
    <trip id="motorcycle307" type="motorcycle_motorcycle" depart="3071.93" departLane="best" from="651080033#1" to="1157435279#1"/>