<?xml version="1.0" encoding="UTF-8"?>

<!-- generated on 2024-03-25 15:56:09.283438 by osmWebWizard.py v1_19_0+0000-baa66a0f364
<configuration>
    <net-file value="C:\Users\Gabe Piano\Sumo\2024-03-25-15-55-45\osm.net.xml.gz"/>
    <output-trip-file value="C:\Users\Gabe Piano\Sumo\2024-03-25-15-55-45\osm.bicycle.trips.xml"/>
    <route-file value="C:\Users\Gabe Piano\Sumo\2024-03-25-15-55-45\osm.bicycle.rou.xml"/>
    <prefix value="bike"/>
    <trip-attributes value="departLane=&quot;best&quot;"/>
    <fringe-start-attributes value="departSpeed=&quot;max&quot;"/>
    <vehicle-class value="bicycle"/>
    <fringe-factor value="2"/>
    <vclass value="bicycle"/>
    <via-edge-types value="highway.motorway,highway.motorway_link,highway.trunk_link,highway.primary_link,highway.secondary_link,highway.tertiary_link"/>
    <max-distance value="8000.0"/>
    <remove-loops value="True"/>
    <validate value="True"/>
    <insertion-density value="6.0"/>
</configuration>
-->

<!-- generated on 2024-03-25 15:56:09 by Eclipse SUMO duarouter Version 1.19.0
<configuration xmlns:xsi="http://www.w3.org/2001/XMLSchema-instance" xsi:noNamespaceSchemaLocation="http://sumo.dlr.de/xsd/duarouterConfiguration.xsd">

    <input>
        <net-file value="C:\Users\Gabe Piano\Sumo\2024-03-25-15-55-45\osm.net.xml.gz"/>
        <route-files value="C:\Users\Gabe Piano\Sumo\2024-03-25-15-55-45\osm.bicycle.trips.xml"/>
    </input>

    <output>
        <output-file value="C:\Users\Gabe Piano\Sumo\2024-03-25-15-55-45\osm.bicycle.trips.xml.tmp"/>
        <alternatives-output value="NUL"/>
        <write-trips value="true"/>
    </output>

    <processing>
        <remove-loops value="true"/>
    </processing>

    <time>
        <begin value="0.0"/>
        <end value="3600.0"/>
    </time>

    <report>
        <no-warnings value="true"/>
        <ignore-errors value="true"/>
        <no-step-log value="true"/>
    </report>

</configuration>
-->

<routes xmlns:xsi="http://www.w3.org/2001/XMLSchema-instance" xsi:noNamespaceSchemaLocation="http://sumo.dlr.de/xsd/routes_file.xsd">
    <vType id="bike_bicycle" vClass="bicycle"/>
    <trip id="bike2" type="bike_bicycle" depart="12.95" departLane="best" from="660352582#1" to="642896772"/>
    <trip id="bike8" type="bike_bicycle" depart="51.79" departLane="best" from="1033158919#1" to="561748189"/>
    <trip id="bike10" type="bike_bicycle" depart="64.74" departLane="best" from="-690613625#1" to="651079972"/>
    <trip id="bike11" type="bike_bicycle" depart="71.21" departLane="best" from="1103029835#1" to="-759383455#0"/>
    <trip id="bike12" type="bike_bicycle" depart="77.69" departLane="best" from="894843877#1" to="109971518#1"/>
    <trip id="bike13" type="bike_bicycle" depart="84.16" departLane="best" from="-544489067#0" to="-563021933"/>
    <trip id="bike15" type="bike_bicycle" depart="97.11" departLane="best" from="-690613625#1" to="651080033#1"/>
    <trip id="bike18" type="bike_bicycle" depart="116.53" departLane="best" departSpeed="max" from="759383438" to="574917575#1"/>
    <trip id="bike19" type="bike_bicycle" depart="123.01" departLane="best" departSpeed="max" from="870991315#0" to="544489068#1"/>
    <trip id="bike24" type="bike_bicycle" depart="155.38" departLane="best" from="624604435#0" to="1103029835#2"/>
    <trip id="bike28" type="bike_bicycle" depart="181.27" departLane="best" from="-879177025#0" to="651080033#1"/>
    <trip id="bike29" type="bike_bicycle" depart="187.75" departLane="best" from="-872215578" to="1103029858#1"/>
    <trip id="bike32" type="bike_bicycle" depart="207.17" departLane="best" from="759516987#2" to="662913537#0"/>
    <trip id="bike35" type="bike_bicycle" depart="226.59" departLane="best" from="1033118917#1" to="879177024#1"/>
    <trip id="bike41" type="bike_bicycle" depart="265.44" departLane="best" from="573710409#0" to="870991319#1"/>
    <trip id="bike43" type="bike_bicycle" depart="278.38" departLane="best" from="993441705" to="183689805#1"/>
    <trip id="bike46" type="bike_bicycle" depart="297.81" departLane="best" from="-690613617" to="-111987075"/>
    <trip id="bike48" type="bike_bicycle" depart="310.75" departLane="best" from="993441705" to="183690512#3"/>
    <trip id="bike51" type="bike_bicycle" depart="330.18" departLane="best" from="651079972" to="366952449#1"/>
    <trip id="bike54" type="bike_bicycle" depart="349.60" departLane="best" from="1157435280#1" to="879177025#1"/>
    <trip id="bike56" type="bike_bicycle" depart="362.55" departLane="best" from="183689805#1" to="-872215578"/>
    <trip id="bike59" type="bike_bicycle" depart="381.97" departLane="best" departSpeed="max" from="583701022" to="-759383455#0"/>
    <trip id="bike60" type="bike_bicycle" depart="388.44" departLane="best" from="665214718#1" to="366952449#1"/>
    <trip id="bike61" type="bike_bicycle" depart="394.92" departLane="best" from="683268248#1" to="183690512#3"/>
    <trip id="bike64" type="bike_bicycle" depart="414.34" departLane="best" from="870991316" to="690977719"/>
    <trip id="bike66" type="bike_bicycle" depart="427.29" departLane="best" from="870991316" to="879177025#0"/>
    <trip id="bike68" type="bike_bicycle" depart="440.23" departLane="best" departSpeed="max" from="665214722" to="-690613617"/>
    <trip id="bike74" type="bike_bicycle" depart="479.08" departLane="best" from="993441705" to="624604435#0"/>
    <trip id="bike80" type="bike_bicycle" depart="517.92" departLane="best" from="1033158923#0" to="870991328#1"/>
    <trip id="bike83" type="bike_bicycle" depart="537.34" departLane="best" from="1033118918" to="690613619"/>
    <trip id="bike84" type="bike_bicycle" depart="543.82" departLane="best" from="-879177025#0" to="-872215578"/>
    <trip id="bike85" type="bike_bicycle" depart="550.29" departLane="best" from="180087572" to="683268248#1"/>
    <trip id="bike86" type="bike_bicycle" depart="556.77" departLane="best" from="-690613625#1" to="-879177025#1"/>
    <trip id="bike87" type="bike_bicycle" depart="563.24" departLane="best" from="-642893603" to="114213935#2"/>
    <trip id="bike91" type="bike_bicycle" depart="589.14" departLane="best" from="111987075" to="109971518#1"/>
    <trip id="bike94" type="bike_bicycle" depart="608.56" departLane="best" from="114213957#1" to="1054125801#1"/>
    <trip id="bike95" type="bike_bicycle" depart="615.03" departLane="best" from="1054125801#1" to="-642893603"/>
    <trip id="bike98" type="bike_bicycle" depart="634.45" departLane="best" from="993441705" to="758880904#1"/>
    <trip id="bike104" type="bike_bicycle" depart="673.30" departLane="best" from="1157435280#1" to="111987075"/>
    <trip id="bike106" type="bike_bicycle" depart="686.25" departLane="best" from="544489068#1" to="651080002"/>
    <trip id="bike109" type="bike_bicycle" depart="705.67" departLane="best" from="-282194769" to="544489112"/>
    <trip id="bike116" type="bike_bicycle" depart="750.99" departLane="best" from="574917575#1" to="574917575#1"/>
    <trip id="bike117" type="bike_bicycle" depart="757.46" departLane="best" from="114213938" to="544489112"/>
    <trip id="bike119" type="bike_bicycle" depart="770.41" departLane="best" from="1033118917#0" to="651080002"/>
    <trip id="bike120" type="bike_bicycle" depart="776.88" departLane="best" from="1033158925#1" to="1103029863#2"/>
    <trip id="bike122" type="bike_bicycle" depart="789.83" departLane="best" departSpeed="max" from="109984882#0" to="660352582#1"/>
    <trip id="bike124" type="bike_bicycle" depart="802.78" departLane="best" from="993441705" to="993441705"/>
    <trip id="bike128" type="bike_bicycle" depart="828.68" departLane="best" from="1103029863#1" to="-759383455#0"/>
    <trip id="bike133" type="bike_bicycle" depart="861.05" departLane="best" departSpeed="max" from="651079954#0" to="879177024#1"/>
    <trip id="bike134" type="bike_bicycle" depart="867.52" departLane="best" from="879177024#1" to="-651079992"/>
    <trip id="bike139" type="bike_bicycle" depart="899.89" departLane="best" departSpeed="max" from="183685560#0" to="870991328#1"/>
    <trip id="bike140" type="bike_bicycle" depart="906.36" departLane="best" from="759516987#2" to="-544489067#0"/>
    <trip id="bike141" type="bike_bicycle" depart="912.84" departLane="best" from="114213957#1" to="1054125801#1"/>
    <trip id="bike148" type="bike_bicycle" depart="958.16" departLane="best" departSpeed="max" from="759383438" to="544489112"/>
    <trip id="bike149" type="bike_bicycle" depart="964.63" departLane="best" from="759383455#1" to="690613617"/>
    <trip id="bike153" type="bike_bicycle" depart="990.53" departLane="best" from="1054125801#1" to="-563021933"/>
    <trip id="bike155" type="bike_bicycle" depart="1003.47" departLane="best" from="114213935#1" to="574917579#1"/>
    <trip id="bike157" type="bike_bicycle" depart="1016.42" departLane="best" departSpeed="max" from="870991315#0" to="870991328#0"/>
    <trip id="bike160" type="bike_bicycle" depart="1035.84" departLane="best" from="1103029833#0" to="879172096"/>
    <trip id="bike163" type="bike_bicycle" depart="1055.27" departLane="best" from="-690613617" to="-642893603"/>
    <trip id="bike164" type="bike_bicycle" depart="1061.74" departLane="best" from="870991315#1" to="820090516"/>
    <trip id="bike165" type="bike_bicycle" depart="1068.21" departLane="best" from="1033158919#1" to="-690613625#0"/>
    <trip id="bike166" type="bike_bicycle" depart="1074.69" departLane="best" from="1198531265" to="1090755561#1"/>
    <trip id="bike170" type="bike_bicycle" depart="1100.58" departLane="best" from="894843877#2" to="1054125801#1"/>
    <trip id="bike173" type="bike_bicycle" depart="1120.01" departLane="best" from="879177025#0" to="-651079992"/>
    <trip id="bike178" type="bike_bicycle" depart="1152.38" departLane="best" from="580815653#2" to="183689805#1"/>
    <trip id="bike179" type="bike_bicycle" depart="1158.85" departLane="best" from="1103029873" to="544489068#1"/>
    <trip id="bike188" type="bike_bicycle" depart="1217.12" departLane="best" from="-690613619" to="-111987075"/>
    <trip id="bike189" type="bike_bicycle" depart="1223.59" departLane="best" from="879177025#1" to="642896772"/>
    <trip id="bike190" type="bike_bicycle" depart="1230.06" departLane="best" from="871213663#0" to="574917575#1"/>
    <trip id="bike192" type="bike_bicycle" depart="1243.01" departLane="best" from="-1075091951#1" to="1075091951#1"/>
    <trip id="bike193" type="bike_bicycle" depart="1249.49" departLane="best" departSpeed="max" from="114216292" to="544489068#1"/>
    <trip id="bike196" type="bike_bicycle" depart="1268.91" departLane="best" from="180087572" to="870991328#0"/>
    <trip id="bike197" type="bike_bicycle" depart="1275.38" departLane="best" from="690613619" to="-797720294"/>
    <trip id="bike200" type="bike_bicycle" depart="1294.81" departLane="best" from="758880904#1" to="660352582#1"/>
    <trip id="bike202" type="bike_bicycle" depart="1307.75" departLane="best" from="-93407108" to="-1095862682#0"/>
    <trip id="bike203" type="bike_bicycle" depart="1314.23" departLane="best" from="1054125801#0" to="158466192#1"/>
    <trip id="bike207" type="bike_bicycle" depart="1340.12" departLane="best" from="183685561" to="1033118918"/>
    <trip id="bike209" type="bike_bicycle" depart="1353.07" departLane="best" from="662913524" to="662913524"/>
    <trip id="bike211" type="bike_bicycle" depart="1366.02" departLane="best" from="879177025#1" to="884613952"/>
    <trip id="bike213" type="bike_bicycle" depart="1378.97" departLane="best" from="1054125801#1" to="-759383469"/>
    <trip id="bike216" type="bike_bicycle" depart="1398.39" departLane="best" from="574917575#1" to="879177025#1"/>
    <trip id="bike217" type="bike_bicycle" depart="1404.86" departLane="best" from="894843877#2" to="574917570#1"/>
    <trip id="bike219" type="bike_bicycle" depart="1417.81" departLane="best" from="870991328#1" to="660352572#2"/>
    <trip id="bike220" type="bike_bicycle" depart="1424.29" departLane="best" from="180087572" to="1033158925#0"/>
    <trip id="bike221" type="bike_bicycle" depart="1430.76" departLane="best" from="1054125801#1" to="624604434#0"/>
    <trip id="bike222" type="bike_bicycle" depart="1437.23" departLane="best" departSpeed="max" from="665214722" to="183690512#3"/>
    <trip id="bike227" type="bike_bicycle" depart="1469.60" departLane="best" from="1033158925#0" to="651079972"/>
    <trip id="bike231" type="bike_bicycle" depart="1495.50" departLane="best" from="114213938" to="870991328#0"/>
    <trip id="bike232" type="bike_bicycle" depart="1501.97" departLane="best" from="573710409#0" to="651079972"/>
    <trip id="bike235" type="bike_bicycle" depart="1521.40" departLane="best" from="1103029856#1" to="660352582#1"/>
    <trip id="bike237" type="bike_bicycle" depart="1534.34" departLane="best" from="114213938" to="660352572#2"/>
    <trip id="bike241" type="bike_bicycle" depart="1560.24" departLane="best" from="1103029833#1" to="642896772"/>
    <trip id="bike242" type="bike_bicycle" depart="1566.71" departLane="best" from="-111987075" to="-759383469"/>
    <trip id="bike248" type="bike_bicycle" depart="1605.56" departLane="best" from="-183543979#1" to="1103029858#1"/>
    <trip id="bike250" type="bike_bicycle" depart="1618.51" departLane="best" from="665214718#1" to="1103029858#1"/>
    <trip id="bike253" type="bike_bicycle" depart="1637.93" departLane="best" from="993441705" to="1103029833#0"/>
    <trip id="bike260" type="bike_bicycle" depart="1683.25" departLane="best" from="651080002" to="662913524"/>
    <trip id="bike262" type="bike_bicycle" depart="1696.19" departLane="best" from="662913519#1" to="-651079992"/>
    <trip id="bike263" type="bike_bicycle" depart="1702.67" departLane="best" from="758880904#1" to="892972017#1"/>
    <trip id="bike264" type="bike_bicycle" depart="1709.14" departLane="best" from="-684437040" to="-1095862682#0"/>
    <trip id="bike265" type="bike_bicycle" depart="1715.62" departLane="best" departSpeed="max" from="109984882#0" to="993441705"/>
    <trip id="bike266" type="bike_bicycle" depart="1722.09" departLane="best" from="894843877#1" to="1103029872"/>
    <trip id="bike273" type="bike_bicycle" depart="1767.41" departLane="best" departSpeed="max" from="114216292" to="1103029856#1"/>
    <trip id="bike277" type="bike_bicycle" depart="1793.31" departLane="best" from="624604435#0" to="690977719"/>
    <trip id="bike278" type="bike_bicycle" depart="1799.78" departLane="best" from="651080031" to="114213935#2"/>
    <trip id="bike279" type="bike_bicycle" depart="1806.25" departLane="best" from="660352582#1" to="892972017#1"/>
    <trip id="bike282" type="bike_bicycle" depart="1825.68" departLane="best" departSpeed="max" from="114216292" to="651080033#1"/>
    <trip id="bike284" type="bike_bicycle" depart="1838.62" departLane="best" from="870991319#0" to="1033118918"/>
    <trip id="bike290" type="bike_bicycle" depart="1877.47" departLane="best" from="651080002" to="1054125801#1"/>
    <trip id="bike293" type="bike_bicycle" depart="1896.89" departLane="best" departSpeed="max" from="183685560#0" to="660352585"/>
    <trip id="bike294" type="bike_bicycle" depart="1903.36" departLane="best" from="651079990" to="624604434#1"/>
    <trip id="bike297" type="bike_bicycle" depart="1922.79" departLane="best" from="651079990" to="1090755561#1"/>
    <trip id="bike298" type="bike_bicycle" depart="1929.26" departLane="best" from="573710409#0" to="1198531265"/>
    <trip id="bike300" type="bike_bicycle" depart="1942.21" departLane="best" from="651080002" to="1054125801#0"/>
    <trip id="bike304" type="bike_bicycle" depart="1968.10" departLane="best" departSpeed="max" from="183685560#0" to="651080031"/>
    <trip id="bike310" type="bike_bicycle" depart="2006.95" departLane="best" from="651080002" to="-690613617"/>
    <trip id="bike311" type="bike_bicycle" depart="2013.42" departLane="best" departSpeed="max" from="870991315#0" to="180087573"/>
    <trip id="bike312" type="bike_bicycle" depart="2019.90" departLane="best" from="870991315#1" to="872215569"/>
    <trip id="bike315" type="bike_bicycle" depart="2039.32" departLane="best" from="879177025#1" to="158466192#1"/>
    <trip id="bike316" type="bike_bicycle" depart="2045.79" departLane="best" from="758887472" to="1103029872"/>
    <trip id="bike318" type="bike_bicycle" depart="2058.74" departLane="best" from="-183543979#1" to="-690613625#1"/>
    <trip id="bike319" type="bike_bicycle" depart="2065.21" departLane="best" from="544489112" to="1090755561#1"/>
    <trip id="bike320" type="bike_bicycle" depart="2071.69" departLane="best" from="93407108" to="-684437040"/>
    <trip id="bike321" type="bike_bicycle" depart="2078.16" departLane="best" from="665214718#1" to="573710409#0"/>
    <trip id="bike324" type="bike_bicycle" depart="2097.58" departLane="best" departSpeed="max" from="1157435280#0" to="820090516"/>
    <trip id="bike326" type="bike_bicycle" depart="2110.53" departLane="best" from="584825959" to="574917570#1"/>
    <trip id="bike327" type="bike_bicycle" depart="2117.01" departLane="best" from="660352585" to="879177025#0"/>
    <trip id="bike329" type="bike_bicycle" depart="2129.95" departLane="best" departSpeed="max" from="651079954#0" to="-759383455#0"/>
    <trip id="bike335" type="bike_bicycle" depart="2168.80" departLane="best" from="651079976" to="-642893603"/>
    <trip id="bike336" type="bike_bicycle" depart="2175.27" departLane="best" from="-690613617" to="574917579#1"/>
    <trip id="bike337" type="bike_bicycle" depart="2181.75" departLane="best" departSpeed="max" from="651079954#0" to="879172124"/>
    <trip id="bike340" type="bike_bicycle" depart="2201.17" departLane="best" from="-879177024#0" to="1090755562#1"/>
    <trip id="bike341" type="bike_bicycle" depart="2207.64" departLane="best" from="1090755561#1" to="690613617"/>
    <trip id="bike343" type="bike_bicycle" depart="2220.59" departLane="best" from="879177025#1" to="183543979#1"/>
    <trip id="bike345" type="bike_bicycle" depart="2233.54" departLane="best" from="-111987075" to="114213935#2"/>
    <trip id="bike347" type="bike_bicycle" depart="2246.49" departLane="best" from="-544489067#0" to="892972017#1"/>
    <trip id="bike348" type="bike_bicycle" depart="2252.96" departLane="best" departSpeed="max" from="759383438" to="544489067#1"/>
    <trip id="bike350" type="bike_bicycle" depart="2265.91" departLane="best" from="651079971" to="1054125801#0"/>
    <trip id="bike351" type="bike_bicycle" depart="2272.38" departLane="best" from="-111987075" to="660352585"/>
    <trip id="bike352" type="bike_bicycle" depart="2278.86" departLane="best" from="180087572" to="651080002"/>
    <trip id="bike353" type="bike_bicycle" depart="2285.33" departLane="best" from="872215569" to="111987010#1"/>
    <trip id="bike354" type="bike_bicycle" depart="2291.81" departLane="best" from="574917570#1" to="584825959"/>
    <trip id="bike355" type="bike_bicycle" depart="2298.28" departLane="best" departSpeed="max" from="183685560#0" to="-544489067#0"/>
    <trip id="bike356" type="bike_bicycle" depart="2304.75" departLane="best" from="1103029835#2" to="109971518#1"/>
    <trip id="bike357" type="bike_bicycle" depart="2311.23" departLane="best" from="651079954#1" to="820090516"/>
    <trip id="bike358" type="bike_bicycle" depart="2317.70" departLane="best" from="1103029833#0" to="651079972"/>
    <trip id="bike359" type="bike_bicycle" depart="2324.18" departLane="best" from="1090755561#1" to="879177025#0"/>
    <trip id="bike362" type="bike_bicycle" depart="2343.60" departLane="best" from="1103029814#1" to="894843877#1"/>
    <trip id="bike363" type="bike_bicycle" depart="2350.07" departLane="best" from="111987075" to="183690512#2"/>
    <trip id="bike367" type="bike_bicycle" depart="2375.97" departLane="best" from="662913537#0" to="574917579#1"/>
    <trip id="bike369" type="bike_bicycle" depart="2388.92" departLane="best" from="544489067#1" to="879172096"/>
    <trip id="bike371" type="bike_bicycle" depart="2401.86" departLane="best" from="690613617" to="870991328#0"/>
    <trip id="bike372" type="bike_bicycle" depart="2408.34" departLane="best" departSpeed="max" from="583701022" to="1033118917#1"/>
    <trip id="bike374" type="bike_bicycle" depart="2421.29" departLane="best" from="544489068#1" to="879172124"/>
    <trip id="bike377" type="bike_bicycle" depart="2440.71" departLane="best" from="660352567" to="183689805#1"/>
    <trip id="bike380" type="bike_bicycle" depart="2460.13" departLane="best" from="-872215578" to="1103029862#1"/>
    <trip id="bike384" type="bike_bicycle" depart="2486.03" departLane="best" from="114213935#2" to="879172124"/>
    <trip id="bike386" type="bike_bicycle" depart="2498.97" departLane="best" from="1075091951#1" to="1075091951#2"/>
    <trip id="bike388" type="bike_bicycle" depart="2511.92" departLane="best" departSpeed="max" from="183685560#0" to="-690613625#1"/>
    <trip id="bike394" type="bike_bicycle" depart="2550.77" departLane="best" departSpeed="max" from="665214722" to="-111987075"/>
    <trip id="bike397" type="bike_bicycle" depart="2570.19" departLane="best" departSpeed="max" from="651079954#0" to="690613620#1"/>
    <trip id="bike399" type="bike_bicycle" depart="2583.14" departLane="best" from="111987010#0" to="183543979#1"/>
    <trip id="bike401" type="bike_bicycle" depart="2596.08" departLane="best" from="870991315#1" to="114213938"/>
    <trip id="bike403" type="bike_bicycle" depart="2609.03" departLane="best" from="660352572#1" to="111987010#0"/>
    <trip id="bike406" type="bike_bicycle" depart="2628.45" departLane="best" from="1103029833#1" to="651079971"/>
    <trip id="bike408" type="bike_bicycle" depart="2641.40" departLane="best" from="820090516" to="820090516"/>
    <trip id="bike410" type="bike_bicycle" depart="2654.35" departLane="best" from="660352567" to="660352585"/>
    <trip id="bike411" type="bike_bicycle" depart="2660.82" departLane="best" from="870991315#1" to="111987010#0"/>
    <trip id="bike414" type="bike_bicycle" depart="2680.25" departLane="best" from="662913519#1" to="114213935#2"/>
    <trip id="bike416" type="bike_bicycle" depart="2693.19" departLane="best" from="870991315#1" to="114213957#1"/>
    <trip id="bike417" type="bike_bicycle" depart="2699.67" departLane="best" from="651080002" to="870991328#0"/>
    <trip id="bike419" type="bike_bicycle" depart="2712.62" departLane="best" from="1090755562#1" to="1103029858#1"/>
    <trip id="bike423" type="bike_bicycle" depart="2738.51" departLane="best" from="870991315#1" to="574917575#1"/>
    <trip id="bike424" type="bike_bicycle" depart="2744.99" departLane="best" from="1054125801#0" to="871213663#0"/>
    <trip id="bike428" type="bike_bicycle" depart="2770.88" departLane="best" from="870991328#1" to="642896772"/>
    <trip id="bike431" type="bike_bicycle" depart="2790.31" departLane="best" from="624604435#0" to="-111987075"/>
    <trip id="bike432" type="bike_bicycle" depart="2796.78" departLane="best" from="1054125801#1" to="-759383469"/>
    <trip id="bike434" type="bike_bicycle" depart="2809.73" departLane="best" departSpeed="max" from="183685560#0" to="1033118917#1"/>
    <trip id="bike439" type="bike_bicycle" depart="2842.10" departLane="best" from="651079976" to="660352572#2"/>
    <trip id="bike441" type="bike_bicycle" depart="2855.05" departLane="best" from="183685561" to="870991328#0"/>
    <trip id="bike443" type="bike_bicycle" depart="2867.99" departLane="best" departSpeed="max" from="583701022" to="1103029833#1"/>
    <trip id="bike444" type="bike_bicycle" depart="2874.47" departLane="best" from="624604435#0" to="574917579#1"/>
    <trip id="bike445" type="bike_bicycle" depart="2880.94" departLane="best" from="651079972" to="651080031"/>
    <trip id="bike446" type="bike_bicycle" depart="2887.42" departLane="best" departSpeed="max" from="651079954#0" to="758887472"/>
    <trip id="bike450" type="bike_bicycle" depart="2913.31" departLane="best" from="660352582#1" to="879172124"/>
    <trip id="bike452" type="bike_bicycle" depart="2926.26" departLane="best" from="879177025#1" to="690613619"/>
    <trip id="bike457" type="bike_bicycle" depart="2958.63" departLane="best" from="-690613625#1" to="660352572#2"/>
    <trip id="bike458" type="bike_bicycle" depart="2965.10" departLane="best" from="1103029833#1" to="-651079992"/>
    <trip id="bike459" type="bike_bicycle" depart="2971.58" departLane="best" from="894843877#2" to="-690613625#0"/>
    <trip id="bike460" type="bike_bicycle" depart="2978.05" departLane="best" from="894843877#2" to="820090516"/>
    <trip id="bike466" type="bike_bicycle" depart="3016.90" departLane="best" from="651079971" to="544489112"/>
    <trip id="bike467" type="bike_bicycle" depart="3023.37" departLane="best" from="758887472" to="879177024#1"/>
    <trip id="bike470" type="bike_bicycle" depart="3042.79" departLane="best" from="544489112" to="871213663#0"/>
    <trip id="bike472" type="bike_bicycle" depart="3055.74" departLane="best" from="758887472" to="870991328#1"/>
    <trip id="bike474" type="bike_bicycle" depart="3068.69" departLane="best" from="-690613625#0" to="-879177025#0"/>
    <trip id="bike476" type="bike_bicycle" depart="3081.64" departLane="best" from="-642893603" to="871213663#0"/>
    <trip id="bike478" type="bike_bicycle" depart="3094.58" departLane="best" from="651079954#1" to="660352572#2"/>
    <trip id="bike480" type="bike_bicycle" depart="3107.53" departLane="best" from="660352585" to="-759383455#0"/>
    <trip id="bike481" type="bike_bicycle" depart="3114.01" departLane="best" from="114213935#2" to="-563021933"/>
    <trip id="bike482" type="bike_bicycle" depart="3120.48" departLane="best" departSpeed="max" from="183685560#0" to="-111987010#0"/>
    <trip id="bike484" type="bike_bicycle" depart="3133.43" departLane="best" from="1103029863#1" to="114213957#1"/>
    <trip id="bike488" type="bike_bicycle" depart="3159.32" departLane="best" from="1103029858#1" to="1103029872"/>
    <trip id="bike491" type="bike_bicycle" depart="3178.75" departLane="best" departSpeed="max" from="651079954#0" to="624604434#0"/>
    <trip id="bike497" type="bike_bicycle" depart="3217.59" departLane="best" from="759383455#1" to="870991328#0"/>
    <trip id="bike499" type="bike_bicycle" depart="3230.54" departLane="best" from="690613625#1" to="690613619"/>
    <trip id="bike500" type="bike_bicycle" depart="3237.01" departLane="best" from="1054125801#1" to="-872215578"/>
    <trip id="bike505" type="bike_bicycle" depart="3269.38" departLane="best" from="660352585" to="183690512#3"/>
    <trip id="bike506" type="bike_bicycle" depart="3275.86" departLane="best" from="662913519#1" to="158466192#1"/>
    <trip id="bike514" type="bike_bicycle" depart="3327.65" departLane="best" from="651079976" to="180087573"/>
    <trip id="bike526" type="bike_bicycle" depart="3405.34" departLane="best" from="114213938" to="-563021933"/>
    <trip id="bike528" type="bike_bicycle" depart="3418.29" departLane="best" from="1103029863#2" to="-759383455#0"/>
    <trip id="bike530" type="bike_bicycle" depart="3431.23" departLane="best" departSpeed="max" from="759383438" to="879172124"/>
    <trip id="bike531" type="bike_bicycle" depart="3437.71" departLane="best" from="-642893603" to="660352572#1"/>
    <trip id="bike537" type="bike_bicycle" depart="3476.55" departLane="best" from="660352567" to="894843877#1"/>
    <trip id="bike538" type="bike_bicycle" depart="3483.03" departLane="best" from="574917579#1" to="1103029833#0"/>
    <trip id="bike542" type="bike_bicycle" depart="3508.92" departLane="best" from="1103029863#1" to="662913519#1"/>
    <trip id="bike543" type="bike_bicycle" depart="3515.40" departLane="best" from="573710407" to="-690613617"/>
    <trip id="bike544" type="bike_bicycle" depart="3521.87" departLane="best" from="759516987#2" to="894843877#2"/>
    <trip id="bike545" type="bike_bicycle" depart="3528.34" departLane="best" from="758880904#1" to="574917570#1"/>
    <trip id="bike547" type="bike_bicycle" depart="3541.29" departLane="best" from="879177024#1" to="690977719"/>
    <trip id="bike549" type="bike_bicycle" depart="3554.24" departLane="best" from="651080002" to="1090755562#1"/>
    <trip id="bike552" type="bike_bicycle" depart="3573.66" departLane="best" from="111987075" to="690613620#1"/>
    <trip id="bike555" type="bike_bicycle" depart="3593.08" departLane="best" from="114213938" to="1103029814#1"/>
    <trip id="bike556" type="bike_bicycle" depart="3599.56" departLane="best" from="1103029863#1" to="651080031"/>
</routes>
