<?xml version="1.0" encoding="UTF-8"?>

<!-- generated on 2024-04-02 14:45:13.486478 by osmWebWizard.py v1_19_0+0000-baa66a0f364
<configuration>
    <net-file value="C:\Users\Gabe Piano\Sumo\2024-04-02-14-45-04\osm.net.xml.gz"/>
    <output-trip-file value="C:\Users\Gabe Piano\Sumo\2024-04-02-14-45-04\osm.motorcycle.trips.xml"/>
    <route-file value="C:\Users\Gabe Piano\Sumo\2024-04-02-14-45-04\osm.motorcycle.rou.xml"/>
    <prefix value="motorcycle"/>
    <trip-attributes value="departLane=&quot;best&quot;"/>
    <fringe-start-attributes value="departSpeed=&quot;max&quot;"/>
    <vehicle-class value="motorcycle"/>
    <fringe-factor value="2"/>
    <vclass value="motorcycle"/>
    <via-edge-types value="highway.motorway,highway.motorway_link,highway.trunk_link,highway.primary_link,highway.secondary_link,highway.tertiary_link"/>
    <max-distance value="1200.0"/>
    <remove-loops value="True"/>
    <validate value="True"/>
    <insertion-density value="4.0"/>
</configuration>
-->

<!-- generated on 2024-04-02 14:45:13 by Eclipse SUMO duarouter Version 1.19.0
<configuration xmlns:xsi="http://www.w3.org/2001/XMLSchema-instance" xsi:noNamespaceSchemaLocation="http://sumo.dlr.de/xsd/duarouterConfiguration.xsd">

    <input>
        <net-file value="C:\Users\Gabe Piano\Sumo\2024-04-02-14-45-04\osm.net.xml.gz"/>
        <route-files value="C:\Users\Gabe Piano\Sumo\2024-04-02-14-45-04\osm.motorcycle.trips.xml"/>
    </input>

    <output>
        <output-file value="C:\Users\Gabe Piano\Sumo\2024-04-02-14-45-04\osm.motorcycle.trips.xml.tmp"/>
        <alternatives-output value="NUL"/>
        <write-trips value="true"/>
    </output>

    <processing>
        <remove-loops value="true"/>
    </processing>

    <time>
        <begin value="0.0"/>
        <end value="3600.0"/>
    </time>

    <report>
        <no-warnings value="true"/>
        <ignore-errors value="true"/>
        <no-step-log value="true"/>
    </report>

</configuration>
-->

<routes xmlns:xsi="http://www.w3.org/2001/XMLSchema-instance" xsi:noNamespaceSchemaLocation="http://sumo.dlr.de/xsd/routes_file.xsd">
    <vType id="motorcycle_motorcycle" vClass="motorcycle"/>
    <trip id="motorcycle0" type="motorcycle_motorcycle" depart="0.00" departLane="best" from="-879177025#0" to="-879177025#0"/>
    <trip id="motorcycle1" type="motorcycle_motorcycle" depart="14.96" departLane="best" from="580815653#2" to="918082981-AddedOnRampEdge"/>
    <trip id="motorcycle2" type="motorcycle_motorcycle" depart="29.93" departLane="best" from="870991324#0" to="642896772"/>
    <trip id="motorcycle3" type="motorcycle_motorcycle" depart="44.89" departLane="best" from="690613625#1" to="690613617"/>
    <trip id="motorcycle4" type="motorcycle_motorcycle" depart="59.85" departLane="best" from="1198531265" to="1090755562#1"/>
    <trip id="motorcycle5" type="motorcycle_motorcycle" depart="74.82" departLane="best" from="111987010#0" to="879177024#1"/>
    <trip id="motorcycle6" type="motorcycle_motorcycle" depart="89.78" departLane="best" from="1072529522#0" to="690613619"/>
    <trip id="motorcycle7" type="motorcycle_motorcycle" depart="104.74" departLane="best" departSpeed="max" from="993441705" to="651079990"/>
    <trip id="motorcycle8" type="motorcycle_motorcycle" depart="119.70" departLane="best" from="870991324#1" to="775185678"/>
    <trip id="motorcycle9" type="motorcycle_motorcycle" depart="134.67" departLane="best" from="872215569" to="111987010#1"/>
    <trip id="motorcycle11" type="motorcycle_motorcycle" depart="164.59" departLane="best" from="628567782#0" to="1103029863#1"/>
    <trip id="motorcycle12" type="motorcycle_motorcycle" depart="179.56" departLane="best" from="651079971" to="878958165#1"/>
    <trip id="motorcycle13" type="motorcycle_motorcycle" depart="194.52" departLane="best" from="574917579#1" to="1103029833#0"/>
    <trip id="motorcycle14" type="motorcycle_motorcycle" depart="209.48" departLane="best" from="111987010#1" to="690613617"/>
    <trip id="motorcycle15" type="motorcycle_motorcycle" depart="224.45" departLane="best" departSpeed="max" from="993441705" to="561748189"/>
    <trip id="motorcycle16" type="motorcycle_motorcycle" depart="239.41" departLane="best" from="918082989" to="870991328#0"/>
    <trip id="motorcycle17" type="motorcycle_motorcycle" depart="254.37" departLane="best" from="111987075" to="690613617"/>
    <trip id="motorcycle18" type="motorcycle_motorcycle" depart="269.34" departLane="best" from="684278129" to="561748193"/>
    <trip id="motorcycle19" type="motorcycle_motorcycle" depart="284.30" departLane="best" from="427551889#1-AddedOffRampEdge" to="894843877#1"/>
    <trip id="motorcycle20" type="motorcycle_motorcycle" depart="299.26" departLane="best" from="-111987010#0" to="-111987075"/>
    <trip id="motorcycle21" type="motorcycle_motorcycle" depart="314.22" departLane="best" from="879172096" to="427551889#1-AddedOffRampEdge"/>
    <trip id="motorcycle23" type="motorcycle_motorcycle" depart="344.15" departLane="best" from="544489068#1" to="574917570#1"/>
    <trip id="motorcycle24" type="motorcycle_motorcycle" depart="359.11" departLane="best" from="624604434#1" to="690613619"/>
    <trip id="motorcycle25" type="motorcycle_motorcycle" depart="374.08" departLane="best" departSpeed="max" from="993441705" to="651080031"/>
    <trip id="motorcycle26" type="motorcycle_motorcycle" depart="389.04" departLane="best" from="1033118917#1" to="1103029833#0"/>
    <trip id="motorcycle28" type="motorcycle_motorcycle" depart="418.97" departLane="best" from="1103029862#1" to="1103029833#0"/>
    <trip id="motorcycle29" type="motorcycle_motorcycle" depart="433.93" departLane="best" from="1103029862#1" to="878958179#0"/>
    <trip id="motorcycle30" type="motorcycle_motorcycle" depart="448.89" departLane="best" from="894843877#2" to="624604434#1"/>
    <trip id="motorcycle31" type="motorcycle_motorcycle" depart="463.86" departLane="best" departSpeed="max" from="366882273" to="366949696"/>
    <trip id="motorcycle32" type="motorcycle_motorcycle" depart="478.82" departLane="best" from="767517245" to="708496109"/>
    <trip id="motorcycle33" type="motorcycle_motorcycle" depart="493.78" departLane="best" from="366952449#1" to="870991328#0"/>
    <trip id="motorcycle34" type="motorcycle_motorcycle" depart="508.75" departLane="best" from="624604436" to="690613619"/>
    <trip id="motorcycle35" type="motorcycle_motorcycle" depart="523.71" departLane="best" departSpeed="max" from="993441705" to="870991319#1-AddedOffRampEdge"/>
    <trip id="motorcycle36" type="motorcycle_motorcycle" depart="538.67" departLane="best" from="870991328#0" to="1054125801#1"/>
    <trip id="motorcycle37" type="motorcycle_motorcycle" depart="553.63" departLane="best" from="918082984" to="690613617"/>
    <trip id="motorcycle38" type="motorcycle_motorcycle" depart="568.60" departLane="best" from="918082986" to="624604435#0"/>
    <trip id="motorcycle39" type="motorcycle_motorcycle" depart="583.56" departLane="best" from="624604434#1" to="708496109"/>
    <trip id="motorcycle40" type="motorcycle_motorcycle" depart="598.52" departLane="best" from="879177024#1" to="624604436"/>
    <trip id="motorcycle41" type="motorcycle_motorcycle" depart="613.49" departLane="best" from="1054125801#0" to="894843877#2"/>
    <trip id="motorcycle42" type="motorcycle_motorcycle" depart="628.45" departLane="best" from="1103029863#1" to="1033118917#1"/>
    <trip id="motorcycle46" type="motorcycle_motorcycle" depart="688.30" departLane="best" from="690613625#1" to="183690512#3"/>
    <trip id="motorcycle47" type="motorcycle_motorcycle" depart="703.27" departLane="best" departSpeed="max" from="993441705" to="-918082989"/>
    <trip id="motorcycle49" type="motorcycle_motorcycle" depart="733.19" departLane="best" from="870991324#0" to="683268248#1"/>
    <trip id="motorcycle50" type="motorcycle_motorcycle" depart="748.15" departLane="best" from="662913537#0" to="1103029863#1"/>
    <trip id="motorcycle51" type="motorcycle_motorcycle" depart="763.12" departLane="best" from="894843877#2" to="-879177024#0"/>
    <trip id="motorcycle52" type="motorcycle_motorcycle" depart="778.08" departLane="best" from="544489067#1" to="872215569"/>
    <trip id="motorcycle53" type="motorcycle_motorcycle" depart="793.04" departLane="best" from="-544489067#0" to="574917570#1"/>
    <trip id="motorcycle54" type="motorcycle_motorcycle" depart="808.01" departLane="best" from="870991324#0" to="624604436"/>
    <trip id="motorcycle55" type="motorcycle_motorcycle" depart="822.97" departLane="best" from="114213938" to="878958165#1"/>
    <trip id="motorcycle58" type="motorcycle_motorcycle" depart="867.86" departLane="best" departSpeed="max" from="-540589202" to="1203000717"/>
    <trip id="motorcycle59" type="motorcycle_motorcycle" depart="882.82" departLane="best" departSpeed="max" from="918082993" to="561748193"/>
    <trip id="motorcycle60" type="motorcycle_motorcycle" depart="897.79" departLane="best" from="-918082989" to="1072529521"/>
    <trip id="motorcycle61" type="motorcycle_motorcycle" depart="912.75" departLane="best" from="918082989" to="158466192#1"/>
    <trip id="motorcycle62" type="motorcycle_motorcycle" depart="927.71" departLane="best" from="-111987010#0" to="-544489067#0"/>
    <trip id="motorcycle63" type="motorcycle_motorcycle" depart="942.67" departLane="best" from="624604434#1" to="690613617"/>
    <trip id="motorcycle64" type="motorcycle_motorcycle" depart="957.64" departLane="best" from="775185678" to="708496109"/>
    <trip id="motorcycle65" type="motorcycle_motorcycle" depart="972.60" departLane="best" from="1033118918" to="1203000717"/>
    <trip id="motorcycle66" type="motorcycle_motorcycle" depart="987.56" departLane="best" from="544489068#1" to="878958179#0"/>
    <trip id="motorcycle67" type="motorcycle_motorcycle" depart="1002.53" departLane="best" from="894843877#2" to="-690613625#1"/>
    <trip id="motorcycle68" type="motorcycle_motorcycle" depart="1017.49" departLane="best" from="863227697" to="775185677"/>
    <trip id="motorcycle70" type="motorcycle_motorcycle" depart="1047.42" departLane="best" from="651079990" to="894843877#1"/>
    <trip id="motorcycle71" type="motorcycle_motorcycle" depart="1062.38" departLane="best" from="-879172095" to="-690613625#1"/>
    <trip id="motorcycle72" type="motorcycle_motorcycle" depart="1077.34" departLane="best" from="544489068#1" to="1103029862#1"/>
    <trip id="motorcycle73" type="motorcycle_motorcycle" depart="1092.31" departLane="best" from="-879177024#0" to="-111987075"/>
    <trip id="motorcycle75" type="motorcycle_motorcycle" depart="1122.23" departLane="best" from="-690613625#1" to="-690613625#0"/>
    <trip id="motorcycle76" type="motorcycle_motorcycle" depart="1137.20" departLane="best" from="183689805#1" to="573710409#0"/>
    <trip id="motorcycle77" type="motorcycle_motorcycle" depart="1152.16" departLane="best" from="870991328#1" to="767517245"/>
    <trip id="motorcycle78" type="motorcycle_motorcycle" depart="1167.12" departLane="best" from="870991328#1" to="894843877#1"/>
    <trip id="motorcycle80" type="motorcycle_motorcycle" depart="1197.05" departLane="best" from="1103029856#1" to="1103029833#0"/>
    <trip id="motorcycle81" type="motorcycle_motorcycle" depart="1212.01" departLane="best" from="573710409#0" to="1054125801#1"/>
    <trip id="motorcycle82" type="motorcycle_motorcycle" depart="1226.97" departLane="best" from="1033158919#1" to="183690512#3"/>
    <trip id="motorcycle83" type="motorcycle_motorcycle" depart="1241.94" departLane="best" from="1103029835#2" to="114213935#0"/>
    <trip id="motorcycle84" type="motorcycle_motorcycle" depart="1256.90" departLane="best" from="863227697" to="870991319#1-AddedOffRampEdge"/>
    <trip id="motorcycle85" type="motorcycle_motorcycle" depart="1271.86" departLane="best" departSpeed="max" from="665787416" to="758880904#1"/>
    <trip id="motorcycle86" type="motorcycle_motorcycle" depart="1286.83" departLane="best" from="690613620#1" to="767517245"/>
    <trip id="motorcycle87" type="motorcycle_motorcycle" depart="1301.79" departLane="best" from="1072529522#0" to="642896772"/>
    <trip id="motorcycle88" type="motorcycle_motorcycle" depart="1316.75" departLane="best" from="870991319#1" to="918082981"/>
    <trip id="motorcycle89" type="motorcycle_motorcycle" depart="1331.72" departLane="best" from="114213957#1" to="662913537#0"/>
    <trip id="motorcycle90" type="motorcycle_motorcycle" depart="1346.68" departLane="best" from="870991328#0" to="870991319#0"/>
    <trip id="motorcycle91" type="motorcycle_motorcycle" depart="1361.64" departLane="best" from="918082989" to="870991328#0"/>
    <trip id="motorcycle92" type="motorcycle_motorcycle" depart="1376.60" departLane="best" from="690613625#1" to="158466192#1"/>
    <trip id="motorcycle93" type="motorcycle_motorcycle" depart="1391.57" departLane="best" from="767517245" to="918082981"/>
    <trip id="motorcycle95" type="motorcycle_motorcycle" depart="1421.49" departLane="best" from="624604434#1" to="427551889#1-AddedOffRampEdge"/>
    <trip id="motorcycle96" type="motorcycle_motorcycle" depart="1436.46" departLane="best" from="366949696" to="-690613619"/>
    <trip id="motorcycle97" type="motorcycle_motorcycle" depart="1451.42" departLane="best" from="111987010#0" to="870991324#1"/>
    <trip id="motorcycle98" type="motorcycle_motorcycle" depart="1466.38" departLane="best" from="870991323" to="-879172095"/>
    <trip id="motorcycle100" type="motorcycle_motorcycle" depart="1496.31" departLane="best" from="870991328#0" to="427551889#1"/>
    <trip id="motorcycle101" type="motorcycle_motorcycle" depart="1511.27" departLane="best" from="-111987075" to="-879177025#1"/>
    <trip id="motorcycle102" type="motorcycle_motorcycle" depart="1526.24" departLane="best" from="879172096" to="690613617"/>
    <trip id="motorcycle104" type="motorcycle_motorcycle" depart="1556.16" departLane="best" from="690613617" to="651080031"/>
    <trip id="motorcycle105" type="motorcycle_motorcycle" depart="1571.12" departLane="best" from="1103029866" to="1033118917#1"/>
    <trip id="motorcycle106" type="motorcycle_motorcycle" depart="1586.09" departLane="best" from="1103029833#0" to="1033118917#1"/>
    <trip id="motorcycle107" type="motorcycle_motorcycle" depart="1601.05" departLane="best" from="580815653#2" to="759516987#2"/>
    <trip id="motorcycle108" type="motorcycle_motorcycle" depart="1616.01" departLane="best" from="561748189" to="-690613617"/>
    <trip id="motorcycle109" type="motorcycle_motorcycle" depart="1630.98" departLane="best" from="-111987075" to="-879177025#1"/>
    <trip id="motorcycle110" type="motorcycle_motorcycle" depart="1645.94" departLane="best" from="1103029833#0" to="1103029833#1"/>
    <trip id="motorcycle112" type="motorcycle_motorcycle" depart="1675.87" departLane="best" from="918082981" to="427551889#1"/>
    <trip id="motorcycle115" type="motorcycle_motorcycle" depart="1720.76" departLane="best" departSpeed="max" from="580815653#0" to="183690512#3"/>
    <trip id="motorcycle116" type="motorcycle_motorcycle" depart="1735.72" departLane="best" from="366952449#1" to="870991328#0"/>
    <trip id="motorcycle117" type="motorcycle_motorcycle" depart="1750.68" departLane="best" from="-690613617" to="-879172095"/>
    <trip id="motorcycle118" type="motorcycle_motorcycle" depart="1765.65" departLane="best" from="683268239" to="-690613620#0"/>
    <trip id="motorcycle119" type="motorcycle_motorcycle" depart="1780.61" departLane="best" from="665787414#1" to="878958179#1"/>
    <trip id="motorcycle120" type="motorcycle_motorcycle" depart="1795.57" departLane="best" from="870991319#1-AddedOffRampEdge" to="-690613625#1"/>
    <trip id="motorcycle121" type="motorcycle_motorcycle" depart="1810.53" departLane="best" from="863227697" to="1033158919#1"/>
    <trip id="motorcycle123" type="motorcycle_motorcycle" depart="1840.46" departLane="best" from="690613617" to="683268239"/>
    <trip id="motorcycle124" type="motorcycle_motorcycle" depart="1855.42" departLane="best" from="-684278128" to="158466192#1"/>
    <trip id="motorcycle125" type="motorcycle_motorcycle" depart="1870.39" departLane="best" from="111987010#1" to="870991328#0"/>
    <trip id="motorcycle126" type="motorcycle_motorcycle" depart="1885.35" departLane="best" from="870991324#0" to="624604435#0"/>
    <trip id="motorcycle127" type="motorcycle_motorcycle" depart="1900.31" departLane="best" from="918082982" to="690613617"/>
    <trip id="motorcycle129" type="motorcycle_motorcycle" depart="1930.24" departLane="best" from="651079971" to="651079972"/>
    <trip id="motorcycle130" type="motorcycle_motorcycle" depart="1945.20" departLane="best" from="1157435280#0" to="114213935#1"/>
    <trip id="motorcycle132" type="motorcycle_motorcycle" depart="1975.13" departLane="best" from="427551889#1-AddedOffRampEdge" to="-879177024#0"/>
    <trip id="motorcycle133" type="motorcycle_motorcycle" depart="1990.09" departLane="best" from="1103029814#1" to="1154677194#1"/>
    <trip id="motorcycle135" type="motorcycle_motorcycle" depart="2020.02" departLane="best" from="366949696" to="683268239"/>
    <trip id="motorcycle136" type="motorcycle_motorcycle" depart="2034.98" departLane="best" from="660352582#1" to="1103029835#2"/>
    <trip id="motorcycle137" type="motorcycle_motorcycle" depart="2049.94" departLane="best" from="540589200" to="1033118917#0"/>
    <trip id="motorcycle138" type="motorcycle_motorcycle" depart="2064.91" departLane="best" from="758880904#1" to="544489067#1"/>
    <trip id="motorcycle139" type="motorcycle_motorcycle" depart="2079.87" departLane="best" from="-879177025#1" to="-872215578"/>
    <trip id="motorcycle142" type="motorcycle_motorcycle" depart="2124.76" departLane="best" from="624604436" to="573710409#0"/>
    <trip id="motorcycle143" type="motorcycle_motorcycle" depart="2139.72" departLane="best" from="427551889#1-AddedOffRampEdge" to="-111987075"/>
    <trip id="motorcycle144" type="motorcycle_motorcycle" depart="2154.69" departLane="best" from="628567807" to="1103029835#1"/>
    <trip id="motorcycle145" type="motorcycle_motorcycle" depart="2169.65" departLane="best" from="775185678" to="683268248#1"/>
    <trip id="motorcycle146" type="motorcycle_motorcycle" depart="2184.61" departLane="best" from="683268239" to="870991319#0"/>
    <trip id="motorcycle147" type="motorcycle_motorcycle" depart="2199.57" departLane="best" departSpeed="max" from="580815653#0" to="183690512#3"/>
    <trip id="motorcycle148" type="motorcycle_motorcycle" depart="2214.54" departLane="best" from="870991328#1" to="870991328#0"/>
    <trip id="motorcycle149" type="motorcycle_motorcycle" depart="2229.50" departLane="best" from="872215569" to="-642893603"/>
    <trip id="motorcycle150" type="motorcycle_motorcycle" depart="2244.46" departLane="best" from="879177025#1" to="918082989"/>
    <trip id="motorcycle151" type="motorcycle_motorcycle" depart="2259.43" departLane="best" from="775185678" to="158466192#1"/>
    <trip id="motorcycle153" type="motorcycle_motorcycle" depart="2289.35" departLane="best" from="1033158925#0" to="561748189"/>
    <trip id="motorcycle154" type="motorcycle_motorcycle" depart="2304.32" departLane="best" from="1103029863#2" to="878958179#2"/>
    <trip id="motorcycle155" type="motorcycle_motorcycle" depart="2319.28" departLane="best" from="1033158925#0" to="183690512#3"/>
    <trip id="motorcycle156" type="motorcycle_motorcycle" depart="2334.24" departLane="best" from="-111987075" to="870991314#1"/>
    <trip id="motorcycle157" type="motorcycle_motorcycle" depart="2349.21" departLane="best" from="1054125801#0" to="183689805#1"/>
    <trip id="motorcycle160" type="motorcycle_motorcycle" depart="2394.09" departLane="best" from="-690613617" to="708496109"/>
    <trip id="motorcycle161" type="motorcycle_motorcycle" depart="2409.06" departLane="best" from="690613617" to="642896772"/>
    <trip id="motorcycle162" type="motorcycle_motorcycle" depart="2424.02" departLane="best" from="-684278128" to="690613617"/>
    <trip id="motorcycle163" type="motorcycle_motorcycle" depart="2438.98" departLane="best" from="366952449#1" to="624604435#0"/>
    <trip id="motorcycle164" type="motorcycle_motorcycle" depart="2453.95" departLane="best" from="624604434#1" to="918082981-AddedOnRampEdge"/>
    <trip id="motorcycle165" type="motorcycle_motorcycle" depart="2468.91" departLane="best" from="870991319#1-AddedOffRampEdge" to="427551889#1-AddedOffRampEdge"/>
    <trip id="motorcycle168" type="motorcycle_motorcycle" depart="2513.80" departLane="best" from="918082986" to="870991328#0"/>
    <trip id="motorcycle169" type="motorcycle_motorcycle" depart="2528.76" departLane="best" from="759516987#2" to="918082982"/>
    <trip id="motorcycle170" type="motorcycle_motorcycle" depart="2543.73" departLane="best" from="427551889#1-AddedOffRampEdge" to="661088487"/>
    <trip id="motorcycle172" type="motorcycle_motorcycle" depart="2573.65" departLane="best" from="879172124" to="872215569"/>
    <trip id="motorcycle174" type="motorcycle_motorcycle" depart="2603.58" departLane="best" from="114213938" to="540589200"/>
    <trip id="motorcycle175" type="motorcycle_motorcycle" depart="2618.54" departLane="best" from="-879177025#0" to="-642893603"/>
    <trip id="motorcycle176" type="motorcycle_motorcycle" depart="2633.50" departLane="best" from="1033158919#1" to="183690512#3"/>
    <trip id="motorcycle179" type="motorcycle_motorcycle" depart="2678.39" departLane="best" from="918082981-AddedOnRampEdge" to="870991324#1"/>
    <trip id="motorcycle180" type="motorcycle_motorcycle" depart="2693.36" departLane="best" from="624604435#0" to="918082982"/>
    <trip id="motorcycle181" type="motorcycle_motorcycle" depart="2708.32" departLane="best" from="1103029814#1" to="1033118917#1"/>
    <trip id="motorcycle182" type="motorcycle_motorcycle" depart="2723.28" departLane="best" from="870991328#0" to="183690512#3"/>
    <trip id="motorcycle183" type="motorcycle_motorcycle" depart="2738.25" departLane="best" from="683268239" to="651079990"/>
    <trip id="motorcycle184" type="motorcycle_motorcycle" depart="2753.21" departLane="best" from="690613625#1" to="767517245"/>
    <trip id="motorcycle185" type="motorcycle_motorcycle" depart="2768.17" departLane="best" from="1103029835#1" to="1103029814#1"/>
    <trip id="motorcycle186" type="motorcycle_motorcycle" depart="2783.14" departLane="best" from="111987010#0" to="870991328#0"/>
    <trip id="motorcycle187" type="motorcycle_motorcycle" depart="2798.10" departLane="best" from="775185678" to="561748189"/>
    <trip id="motorcycle188" type="motorcycle_motorcycle" depart="2813.06" departLane="best" from="775185678" to="427551889#1"/>
    <trip id="motorcycle190" type="motorcycle_motorcycle" depart="2842.99" departLane="best" from="918082981-AddedOnRampEdge" to="-684278128"/>
    <trip id="motorcycle191" type="motorcycle_motorcycle" depart="2857.95" departLane="best" departSpeed="max" from="580815653#0" to="183690512#3"/>
    <trip id="motorcycle192" type="motorcycle_motorcycle" depart="2872.91" departLane="best" from="918082986" to="-690613620#0"/>
    <trip id="motorcycle193" type="motorcycle_motorcycle" depart="2887.88" departLane="best" from="879177024#1" to="690613625#1"/>
    <trip id="motorcycle194" type="motorcycle_motorcycle" depart="2902.84" departLane="best" from="879172096" to="642896772"/>
    <trip id="motorcycle195" type="motorcycle_motorcycle" depart="2917.80" departLane="best" from="662913537#0" to="574917570#1"/>
    <trip id="motorcycle196" type="motorcycle_motorcycle" depart="2932.77" departLane="best" departSpeed="max" from="580815653#0" to="183690512#3"/>
    <trip id="motorcycle197" type="motorcycle_motorcycle" depart="2947.73" departLane="best" from="690613620#1" to="870991324#1"/>
    <trip id="motorcycle198" type="motorcycle_motorcycle" depart="2962.69" departLane="best" from="758880904#1" to="1103029814#1"/>
    <trip id="motorcycle199" type="motorcycle_motorcycle" depart="2977.66" departLane="best" from="879177025#1" to="690613620#1"/>
    <trip id="motorcycle200" type="motorcycle_motorcycle" depart="2992.62" departLane="best" from="870991323" to="-879177024#0"/>
    <trip id="motorcycle201" type="motorcycle_motorcycle" depart="3007.58" departLane="best" from="879177025#0" to="690613625#1"/>
    <trip id="motorcycle202" type="motorcycle_motorcycle" depart="3022.54" departLane="best" from="1197045457" to="1033118917#1"/>
    <trip id="motorcycle204" type="motorcycle_motorcycle" depart="3052.47" departLane="best" from="863227697" to="870991328#1"/>
    <trip id="motorcycle205" type="motorcycle_motorcycle" depart="3067.43" departLane="best" departSpeed="max" from="665787416" to="1103029833#0"/>
    <trip id="motorcycle206" type="motorcycle_motorcycle" depart="3082.40" departLane="best" from="-918082989" to="870991324#0"/>
    <trip id="motorcycle207" type="motorcycle_motorcycle" depart="3097.36" departLane="best" from="870991324#1" to="918082981-AddedOnRampEdge"/>
    <trip id="motorcycle208" type="motorcycle_motorcycle" depart="3112.32" departLane="best" from="870991319#1" to="642896772"/>
    <trip id="motorcycle209" type="motorcycle_motorcycle" depart="3127.29" departLane="best" from="894843877#1" to="870991319#1"/>
    <trip id="motorcycle210" type="motorcycle_motorcycle" depart="3142.25" departLane="best" from="-690613625#0" to="-111987010#0"/>
    <trip id="motorcycle211" type="motorcycle_motorcycle" depart="3157.21" departLane="best" from="662913537#0" to="879172124"/>
    <trip id="motorcycle212" type="motorcycle_motorcycle" depart="3172.18" departLane="best" from="879172096" to="690613619"/>
    <trip id="motorcycle213" type="motorcycle_motorcycle" depart="3187.14" departLane="best" from="1054125801#0" to="642896772"/>
    <trip id="motorcycle214" type="motorcycle_motorcycle" depart="3202.10" departLane="best" from="683268239" to="427551889#1-AddedOffRampEdge"/>
    <trip id="motorcycle216" type="motorcycle_motorcycle" depart="3232.03" departLane="best" from="684278128" to="427551889#1-AddedOffRampEdge"/>
    <trip id="motorcycle219" type="motorcycle_motorcycle" depart="3276.92" departLane="best" from="111987075" to="708496109"/>
    <trip id="motorcycle221" type="motorcycle_motorcycle" depart="3306.84" departLane="best" from="690613625#1" to="870991328#0"/>
    <trip id="motorcycle222" type="motorcycle_motorcycle" depart="3321.81" departLane="best" from="879177025#1" to="111987010#1"/>
    <trip id="motorcycle224" type="motorcycle_motorcycle" depart="3351.73" departLane="best" from="759516987#2" to="870991319#0"/>
    <trip id="motorcycle226" type="motorcycle_motorcycle" depart="3381.66" departLane="best" departSpeed="max" from="864498341" to="540589202"/>
    <trip id="motorcycle227" type="motorcycle_motorcycle" depart="3396.62" departLane="best" from="427551889#1" to="-879172095"/>
    <trip id="motorcycle228" type="motorcycle_motorcycle" depart="3411.59" departLane="best" from="628567782#1" to="651079954#1"/>
    <trip id="motorcycle229" type="motorcycle_motorcycle" depart="3426.55" departLane="best" from="661088487" to="870991328#1"/>
    <trip id="motorcycle231" type="motorcycle_motorcycle" depart="3456.47" departLane="best" from="690613625#1" to="183689805#1"/>
    <trip id="motorcycle232" type="motorcycle_motorcycle" depart="3471.44" departLane="best" from="114213938" to="1103029863#2"/>
    <trip id="motorcycle233" type="motorcycle_motorcycle" depart="3486.40" departLane="best" from="879177024#1" to="870991319#1-AddedOffRampEdge"/>
    <trip id="motorcycle234" type="motorcycle_motorcycle" depart="3501.36" departLane="best" from="870991328#1" to="642896772"/>
    <trip id="motorcycle235" type="motorcycle_motorcycle" depart="3516.33" departLane="best" from="879172096" to="183690512#2"/>
    <trip id="motorcycle236" type="motorcycle_motorcycle" depart="3531.29" departLane="best" from="1033158925#1" to="-690613620#0"/>
    <trip id="motorcycle238" type="motorcycle_motorcycle" depart="3561.22" departLane="best" from="-690613625#0" to="-879177025#0"/>
    <trip id="motorcycle239" type="motorcycle_motorcycle" depart="3576.18" departLane="best" from="-544489067#0" to="871213663#0"/>
    <trip id="motorcycle240" type="motorcycle_motorcycle" depart="3591.14" departLane="best" from="918082986" to="683268239"/>
</routes>
