<?xml version="1.0" encoding="UTF-8"?>

<!-- generated on 2024-04-02 14:45:12.577265 by osmWebWizard.py v1_19_0+0000-baa66a0f364
<configuration>
    <net-file value="C:\Users\Gabe Piano\Sumo\2024-04-02-14-45-04\osm.net.xml.gz"/>
    <output-trip-file value="C:\Users\Gabe Piano\Sumo\2024-04-02-14-45-04\osm.bicycle.trips.xml"/>
    <route-file value="C:\Users\Gabe Piano\Sumo\2024-04-02-14-45-04\osm.bicycle.rou.xml"/>
    <prefix value="bike"/>
    <trip-attributes value="departLane=&quot;best&quot;"/>
    <fringe-start-attributes value="departSpeed=&quot;max&quot;"/>
    <vehicle-class value="bicycle"/>
    <fringe-factor value="2"/>
    <vclass value="bicycle"/>
    <via-edge-types value="highway.motorway,highway.motorway_link,highway.trunk_link,highway.primary_link,highway.secondary_link,highway.tertiary_link"/>
    <max-distance value="8000.0"/>
    <remove-loops value="True"/>
    <validate value="True"/>
    <insertion-density value="6.0"/>
</configuration>
-->

<!-- generated on 2024-04-02 14:45:12 by Eclipse SUMO duarouter Version 1.19.0
<configuration xmlns:xsi="http://www.w3.org/2001/XMLSchema-instance" xsi:noNamespaceSchemaLocation="http://sumo.dlr.de/xsd/duarouterConfiguration.xsd">

    <input>
        <net-file value="C:\Users\Gabe Piano\Sumo\2024-04-02-14-45-04\osm.net.xml.gz"/>
        <route-files value="C:\Users\Gabe Piano\Sumo\2024-04-02-14-45-04\osm.bicycle.trips.xml"/>
    </input>

    <output>
        <output-file value="C:\Users\Gabe Piano\Sumo\2024-04-02-14-45-04\osm.bicycle.trips.xml.tmp"/>
        <alternatives-output value="NUL"/>
        <write-trips value="true"/>
    </output>

    <processing>
        <remove-loops value="true"/>
    </processing>

    <time>
        <begin value="0.0"/>
        <end value="3600.0"/>
    </time>

    <report>
        <no-warnings value="true"/>
        <ignore-errors value="true"/>
        <no-step-log value="true"/>
    </report>

</configuration>
-->

<routes xmlns:xsi="http://www.w3.org/2001/XMLSchema-instance" xsi:noNamespaceSchemaLocation="http://sumo.dlr.de/xsd/routes_file.xsd">
    <vType id="bike_bicycle" vClass="bicycle"/>
    <trip id="bike1" type="bike_bicycle" depart="11.40" departLane="best" from="-111987010#0" to="1090755562#1"/>
    <trip id="bike3" type="bike_bicycle" depart="34.19" departLane="best" from="-879172095" to="-872215578"/>
    <trip id="bike4" type="bike_bicycle" depart="45.59" departLane="best" departSpeed="max" from="366882273" to="-544489067#0"/>
    <trip id="bike6" type="bike_bicycle" depart="68.38" departLane="best" from="872215569" to="1072529522#0"/>
    <trip id="bike7" type="bike_bicycle" depart="79.78" departLane="best" from="665214718#1" to="624604434#1"/>
    <trip id="bike9" type="bike_bicycle" depart="102.57" departLane="best" from="870991319#1-AddedOffRampEdge" to="-111987010#0"/>
    <trip id="bike10" type="bike_bicycle" depart="113.97" departLane="best" from="870991319#1-AddedOffRampEdge" to="684278129"/>
    <trip id="bike12" type="bike_bicycle" depart="136.76" departLane="best" from="918082984" to="114213935#2"/>
    <trip id="bike13" type="bike_bicycle" depart="148.16" departLane="best" from="879177025#0" to="111987010#1"/>
    <trip id="bike15" type="bike_bicycle" depart="170.95" departLane="best" from="870991319#1-AddedOffRampEdge" to="708496109"/>
    <trip id="bike16" type="bike_bicycle" depart="182.34" departLane="best" from="580815653#2" to="918082982"/>
    <trip id="bike18" type="bike_bicycle" depart="205.14" departLane="best" from="870991324#1" to="651079972"/>
    <trip id="bike20" type="bike_bicycle" depart="227.93" departLane="best" from="-690613619" to="684278128"/>
    <trip id="bike27" type="bike_bicycle" depart="307.71" departLane="best" from="665214718#1" to="651079971"/>
    <trip id="bike28" type="bike_bicycle" depart="319.10" departLane="best" from="1054125801#0" to="708496109"/>
    <trip id="bike31" type="bike_bicycle" depart="353.29" departLane="best" from="624604436" to="683268248#1"/>
    <trip id="bike34" type="bike_bicycle" depart="387.48" departLane="best" from="114213957#1" to="1103029858#1"/>
    <trip id="bike35" type="bike_bicycle" depart="398.88" departLane="best" from="1103029833#1" to="870991328#0"/>
    <trip id="bike38" type="bike_bicycle" depart="433.07" departLane="best" from="879177025#1" to="366952449#1"/>
    <trip id="bike39" type="bike_bicycle" depart="444.47" departLane="best" from="1103029866" to="1103029835#1"/>
    <trip id="bike42" type="bike_bicycle" depart="478.66" departLane="best" from="158466192#1" to="1090755562#1"/>
    <trip id="bike43" type="bike_bicycle" depart="490.05" departLane="best" departSpeed="max" from="993441705" to="561748193"/>
    <trip id="bike44" type="bike_bicycle" depart="501.45" departLane="best" from="879177025#0" to="684278128"/>
    <trip id="bike46" type="bike_bicycle" depart="524.24" departLane="best" from="870991319#0" to="183689805#1"/>
    <trip id="bike48" type="bike_bicycle" depart="547.03" departLane="best" departSpeed="max" from="993441705" to="574917575#1"/>
    <trip id="bike49" type="bike_bicycle" depart="558.43" departLane="best" from="-918082989" to="-642893603"/>
    <trip id="bike50" type="bike_bicycle" depart="569.83" departLane="best" from="111987075" to="690613620#1"/>
    <trip id="bike51" type="bike_bicycle" depart="581.22" departLane="best" from="-684278128" to="574917579#1"/>
    <trip id="bike54" type="bike_bicycle" depart="615.41" departLane="best" from="427551889#1-AddedOffRampEdge" to="895757842"/>
    <trip id="bike56" type="bike_bicycle" depart="638.21" departLane="best" from="574917570#1" to="1054125801#1"/>
    <trip id="bike57" type="bike_bicycle" depart="649.60" departLane="best" from="-879177025#0" to="878958165#1"/>
    <trip id="bike61" type="bike_bicycle" depart="695.19" departLane="best" from="870991315#1" to="574917575#1"/>
    <trip id="bike62" type="bike_bicycle" depart="706.59" departLane="best" from="-111987010#0" to="114213935#0"/>
    <trip id="bike63" type="bike_bicycle" depart="717.98" departLane="best" from="879172124" to="879177025#1"/>
    <trip id="bike66" type="bike_bicycle" depart="752.17" departLane="best" from="878958179#1" to="895757842"/>
    <trip id="bike67" type="bike_bicycle" depart="763.57" departLane="best" from="-879177024#0" to="544489068#1"/>
    <trip id="bike69" type="bike_bicycle" depart="786.36" departLane="best" departSpeed="max" from="870991315#0" to="1033118917#0"/>
    <trip id="bike70" type="bike_bicycle" depart="797.76" departLane="best" from="544489112" to="624604434#1"/>
    <trip id="bike72" type="bike_bicycle" depart="820.55" departLane="best" departSpeed="max" from="366882273" to="1090755562#1"/>
    <trip id="bike73" type="bike_bicycle" depart="831.95" departLane="best" from="624604434#1" to="708496109"/>
    <trip id="bike74" type="bike_bicycle" depart="843.34" departLane="best" from="1103029814#1" to="111987010#1"/>
    <trip id="bike75" type="bike_bicycle" depart="854.74" departLane="best" departSpeed="max" from="993441705" to="660352590"/>
    <trip id="bike76" type="bike_bicycle" depart="866.14" departLane="best" from="651079990" to="574917570#1"/>
    <trip id="bike79" type="bike_bicycle" depart="900.33" departLane="best" from="1103029856#1" to="1090755562#1"/>
    <trip id="bike80" type="bike_bicycle" depart="911.72" departLane="best" from="544489067#1" to="651080031"/>
    <trip id="bike82" type="bike_bicycle" depart="934.52" departLane="best" from="872215569" to="690613620#1"/>
    <trip id="bike84" type="bike_bicycle" depart="957.31" departLane="best" from="1103029833#1" to="1033118917#1"/>
    <trip id="bike86" type="bike_bicycle" depart="980.10" departLane="best" from="544489112" to="870991316"/>
    <trip id="bike87" type="bike_bicycle" depart="991.50" departLane="best" from="870991319#1-AddedOffRampEdge" to="1072529521"/>
    <trip id="bike88" type="bike_bicycle" depart="1002.90" departLane="best" from="879177025#1" to="183690512#2"/>
    <trip id="bike89" type="bike_bicycle" depart="1014.29" departLane="best" departSpeed="max" from="366882273" to="427551889#1"/>
    <trip id="bike91" type="bike_bicycle" depart="1037.09" departLane="best" departSpeed="max" from="918082993" to="-879177024#0"/>
    <trip id="bike92" type="bike_bicycle" depart="1048.48" departLane="best" from="158466192#1" to="114213935#2"/>
    <trip id="bike93" type="bike_bicycle" depart="1059.88" departLane="best" from="-642893603" to="1103029835#1"/>
    <trip id="bike94" type="bike_bicycle" depart="1071.28" departLane="best" from="1090755561#1" to="183690512#3"/>
    <trip id="bike97" type="bike_bicycle" depart="1105.47" departLane="best" from="427551889#1" to="-642893603"/>
    <trip id="bike98" type="bike_bicycle" depart="1116.86" departLane="best" from="624604435#0" to="-690613617"/>
    <trip id="bike99" type="bike_bicycle" depart="1128.26" departLane="best" departSpeed="max" from="993441705" to="870991328#0"/>
    <trip id="bike100" type="bike_bicycle" depart="1139.66" departLane="best" from="-918082989" to="-879177025#1"/>
    <trip id="bike102" type="bike_bicycle" depart="1162.45" departLane="best" from="561748193" to="1090755562#1"/>
    <trip id="bike103" type="bike_bicycle" depart="1173.84" departLane="best" from="158466192#1" to="690613619"/>
    <trip id="bike106" type="bike_bicycle" depart="1208.03" departLane="best" from="427551889#1-AddedOffRampEdge" to="183689805#1"/>
    <trip id="bike107" type="bike_bicycle" depart="1219.43" departLane="best" from="918082984" to="690613617"/>
    <trip id="bike108" type="bike_bicycle" depart="1230.83" departLane="best" from="624604436" to="-690613625#0"/>
    <trip id="bike109" type="bike_bicycle" depart="1242.22" departLane="best" from="1033158925#0" to="1103029866"/>
    <trip id="bike113" type="bike_bicycle" depart="1287.81" departLane="best" from="574917570#1" to="871213663#1"/>
    <trip id="bike114" type="bike_bicycle" depart="1299.21" departLane="best" from="1033158925#0" to="918082981"/>
    <trip id="bike115" type="bike_bicycle" depart="1310.60" departLane="best" from="879172096" to="1072529521"/>
    <trip id="bike118" type="bike_bicycle" depart="1344.79" departLane="best" from="-879172095" to="1103029835#1"/>
    <trip id="bike121" type="bike_bicycle" depart="1378.98" departLane="best" departSpeed="max" from="580815653#0" to="894843877#1"/>
    <trip id="bike122" type="bike_bicycle" depart="1390.38" departLane="best" from="1103029833#0" to="690613620#1"/>
    <trip id="bike125" type="bike_bicycle" depart="1424.57" departLane="best" from="114213957#1" to="863227697"/>
    <trip id="bike126" type="bike_bicycle" depart="1435.97" departLane="best" from="544489067#1" to="366952449#1"/>
    <trip id="bike127" type="bike_bicycle" depart="1447.36" departLane="best" departSpeed="max" from="993441705" to="-918082989"/>
    <trip id="bike128" type="bike_bicycle" depart="1458.76" departLane="best" from="-872215578" to="1090755562#1"/>
    <trip id="bike132" type="bike_bicycle" depart="1504.34" departLane="best" from="894843877#2" to="-690613617"/>
    <trip id="bike133" type="bike_bicycle" depart="1515.74" departLane="best" from="660352582#1" to="918082986"/>
    <trip id="bike135" type="bike_bicycle" depart="1538.53" departLane="best" from="870991323" to="-111987010#0"/>
    <trip id="bike137" type="bike_bicycle" depart="1561.33" departLane="best" from="1033118918" to="879177025#1"/>
    <trip id="bike140" type="bike_bicycle" depart="1595.52" departLane="best" from="690613625#1" to="1072529522#0"/>
    <trip id="bike141" type="bike_bicycle" depart="1606.91" departLane="best" from="661088487" to="1103029856#1"/>
    <trip id="bike142" type="bike_bicycle" depart="1618.31" departLane="best" from="561748193" to="-544489067#0"/>
    <trip id="bike143" type="bike_bicycle" depart="1629.71" departLane="best" from="870991316" to="879172096"/>
    <trip id="bike146" type="bike_bicycle" depart="1663.90" departLane="best" from="661088487" to="1103029856#1"/>
    <trip id="bike147" type="bike_bicycle" depart="1675.29" departLane="best" from="863227697" to="624604435#0"/>
    <trip id="bike148" type="bike_bicycle" depart="1686.69" departLane="best" departSpeed="max" from="366882273" to="-111987075"/>
    <trip id="bike149" type="bike_bicycle" depart="1698.09" departLane="best" from="-879172095" to="878958179#0"/>
    <trip id="bike150" type="bike_bicycle" depart="1709.48" departLane="best" from="879177024#1" to="624604434#1"/>
    <trip id="bike152" type="bike_bicycle" depart="1732.28" departLane="best" from="1033158923#0" to="1033118917#0"/>
    <trip id="bike154" type="bike_bicycle" depart="1755.07" departLane="best" from="870991319#0" to="-642893603"/>
    <trip id="bike157" type="bike_bicycle" depart="1789.26" departLane="best" from="870991315#1" to="878958179#0"/>
    <trip id="bike158" type="bike_bicycle" depart="1800.65" departLane="best" from="624604435#0" to="366952449#1"/>
    <trip id="bike159" type="bike_bicycle" depart="1812.05" departLane="best" from="1033158925#0" to="-879177025#1"/>
    <trip id="bike160" type="bike_bicycle" depart="1823.45" departLane="best" from="872215569" to="918082982"/>
    <trip id="bike161" type="bike_bicycle" depart="1834.84" departLane="best" from="870991319#1-AddedOffRampEdge" to="878958179#0"/>
    <trip id="bike162" type="bike_bicycle" depart="1846.24" departLane="best" from="-642893603" to="758880904#1"/>
    <trip id="bike163" type="bike_bicycle" depart="1857.64" departLane="best" departSpeed="max" from="114216316" to="879177025#1"/>
    <trip id="bike164" type="bike_bicycle" depart="1869.03" departLane="best" from="870991319#1" to="878958165#1"/>
    <trip id="bike165" type="bike_bicycle" depart="1880.43" departLane="best" from="870991319#1-AddedOffRampEdge" to="1103029858#1"/>
    <trip id="bike166" type="bike_bicycle" depart="1891.83" departLane="best" from="870991316" to="879177025#0"/>
    <trip id="bike169" type="bike_bicycle" depart="1926.02" departLane="best" from="544489067#1" to="111987010#0"/>
    <trip id="bike171" type="bike_bicycle" depart="1948.81" departLane="best" from="872215569" to="1072529521"/>
    <trip id="bike172" type="bike_bicycle" depart="1960.21" departLane="best" departSpeed="max" from="114216316" to="878958165#1"/>
    <trip id="bike173" type="bike_bicycle" depart="1971.60" departLane="best" from="-918082989" to="1103029863#1"/>
    <trip id="bike175" type="bike_bicycle" depart="1994.40" departLane="best" departSpeed="max" from="918082993" to="574917579#1"/>
    <trip id="bike176" type="bike_bicycle" depart="2005.79" departLane="best" from="918082981" to="-879177025#1"/>
    <trip id="bike177" type="bike_bicycle" depart="2017.19" departLane="best" from="918082989" to="1054125801#1"/>
    <trip id="bike178" type="bike_bicycle" depart="2028.59" departLane="best" from="918082986" to="1103029858#1"/>
    <trip id="bike181" type="bike_bicycle" depart="2062.78" departLane="best" from="651080031" to="573710409#0"/>
    <trip id="bike184" type="bike_bicycle" depart="2096.97" departLane="best" from="-111987010#0" to="-879177025#1"/>
    <trip id="bike185" type="bike_bicycle" depart="2108.36" departLane="best" from="624604434#1" to="-690613625#0"/>
    <trip id="bike186" type="bike_bicycle" depart="2119.76" departLane="best" from="863227697" to="665214718#1"/>
    <trip id="bike187" type="bike_bicycle" depart="2131.15" departLane="best" from="1198531265" to="690613620#1"/>
    <trip id="bike188" type="bike_bicycle" depart="2142.55" departLane="best" departSpeed="max" from="665787416" to="114213935#1"/>
    <trip id="bike189" type="bike_bicycle" depart="2153.95" departLane="best" from="114213938" to="871213663#0"/>
    <trip id="bike190" type="bike_bicycle" depart="2165.34" departLane="best" from="661088487" to="-111987010#0"/>
    <trip id="bike191" type="bike_bicycle" depart="2176.74" departLane="best" from="114213938" to="158326567#0"/>
    <trip id="bike192" type="bike_bicycle" depart="2188.14" departLane="best" from="158466192#1" to="1103029866"/>
    <trip id="bike195" type="bike_bicycle" depart="2222.33" departLane="best" from="-690613620#0" to="651079972"/>
    <trip id="bike197" type="bike_bicycle" depart="2245.12" departLane="best" from="-111987010#0" to="1103029863#2"/>
    <trip id="bike200" type="bike_bicycle" depart="2279.31" departLane="best" from="651079990" to="1090755562#1"/>
    <trip id="bike201" type="bike_bicycle" depart="2290.71" departLane="best" from="544489112" to="879172096"/>
    <trip id="bike203" type="bike_bicycle" depart="2313.50" departLane="best" from="111987010#1" to="573710409#0"/>
    <trip id="bike204" type="bike_bicycle" depart="2324.90" departLane="best" from="661088487" to="114213935#2"/>
    <trip id="bike205" type="bike_bicycle" depart="2336.29" departLane="best" from="870991323" to="863227697"/>
    <trip id="bike208" type="bike_bicycle" depart="2370.48" departLane="best" from="1103029862#1" to="427551889#1-AddedOffRampEdge"/>
    <trip id="bike209" type="bike_bicycle" depart="2381.88" departLane="best" from="870991316" to="690613620#1"/>
    <trip id="bike211" type="bike_bicycle" depart="2404.67" departLane="best" from="1090755561#1" to="684278129"/>
    <trip id="bike216" type="bike_bicycle" depart="2461.65" departLane="best" from="1054125801#1" to="895757842"/>
    <trip id="bike217" type="bike_bicycle" depart="2473.05" departLane="best" departSpeed="max" from="580815653#0" to="-690613617"/>
    <trip id="bike219" type="bike_bicycle" depart="2495.84" departLane="best" from="544489067#1" to="870991319#1"/>
    <trip id="bike222" type="bike_bicycle" depart="2530.03" departLane="best" from="-879172095" to="651079972"/>
    <trip id="bike223" type="bike_bicycle" depart="2541.43" departLane="best" from="661088487" to="561748193"/>
    <trip id="bike224" type="bike_bicycle" depart="2552.83" departLane="best" from="870991324#1" to="624604434#1"/>
    <trip id="bike226" type="bike_bicycle" depart="2575.62" departLane="best" from="544489112" to="1103029856#1"/>
    <trip id="bike228" type="bike_bicycle" depart="2598.41" departLane="best" departSpeed="max" from="870991315#0" to="574917570#1"/>
    <trip id="bike230" type="bike_bicycle" depart="2621.21" departLane="best" from="-879172095" to="1103029863#2"/>
    <trip id="bike231" type="bike_bicycle" depart="2632.60" departLane="best" from="-111987010#0" to="-111987075"/>
    <trip id="bike234" type="bike_bicycle" depart="2666.79" departLane="best" from="-690613625#0" to="-690613620#0"/>
    <trip id="bike237" type="bike_bicycle" depart="2700.98" departLane="best" departSpeed="max" from="366882273" to="-544489067#0"/>
    <trip id="bike242" type="bike_bicycle" depart="2757.97" departLane="best" from="871213663#1" to="895757842"/>
    <trip id="bike245" type="bike_bicycle" depart="2792.15" departLane="best" from="1103029835#1" to="1090755562#1"/>
    <trip id="bike246" type="bike_bicycle" depart="2803.55" departLane="best" from="366949696" to="-544489067#0"/>
    <trip id="bike249" type="bike_bicycle" depart="2837.74" departLane="best" from="544489068#1" to="1033118917#0"/>
    <trip id="bike251" type="bike_bicycle" depart="2860.53" departLane="best" from="158326567#0" to="624604436"/>
    <trip id="bike253" type="bike_bicycle" depart="2883.33" departLane="best" from="1033118918" to="366952449#1"/>
    <trip id="bike255" type="bike_bicycle" depart="2906.12" departLane="best" from="1103029833#1" to="114213935#1"/>
    <trip id="bike263" type="bike_bicycle" depart="2997.29" departLane="best" from="918082982" to="1072529522#0"/>
    <trip id="bike268" type="bike_bicycle" depart="3054.28" departLane="best" from="1054125801#0" to="651079971"/>
    <trip id="bike270" type="bike_bicycle" depart="3077.07" departLane="best" from="684278129" to="918082981"/>
    <trip id="bike274" type="bike_bicycle" depart="3122.65" departLane="best" from="690613625#1" to="-690613625#1"/>
    <trip id="bike275" type="bike_bicycle" depart="3134.05" departLane="best" from="684278129" to="651080031"/>
    <trip id="bike282" type="bike_bicycle" depart="3213.83" departLane="best" from="870991316" to="870991324#0"/>
    <trip id="bike284" type="bike_bicycle" depart="3236.62" departLane="best" from="661088487" to="870991324#1"/>
    <trip id="bike285" type="bike_bicycle" depart="3248.02" departLane="best" from="690613620#1" to="183690512#3"/>
    <trip id="bike286" type="bike_bicycle" depart="3259.41" departLane="best" from="759516987#2" to="918082981"/>
    <trip id="bike287" type="bike_bicycle" depart="3270.81" departLane="best" from="111987010#0" to="870991319#1-AddedOffRampEdge"/>
    <trip id="bike288" type="bike_bicycle" depart="3282.21" departLane="best" from="624604434#1" to="544489068#1"/>
    <trip id="bike289" type="bike_bicycle" depart="3293.60" departLane="best" from="366949696" to="708496109"/>
    <trip id="bike291" type="bike_bicycle" depart="3316.40" departLane="best" from="870991324#1" to="-872215578"/>
    <trip id="bike293" type="bike_bicycle" depart="3339.19" departLane="best" from="544489068#1" to="651079971"/>
    <trip id="bike295" type="bike_bicycle" depart="3361.98" departLane="best" from="870991316" to="1054125801#1"/>
    <trip id="bike296" type="bike_bicycle" depart="3373.38" departLane="best" from="1103029833#1" to="870991319#1"/>
    <trip id="bike299" type="bike_bicycle" depart="3407.57" departLane="best" from="-111987075" to="895757842"/>
    <trip id="bike300" type="bike_bicycle" depart="3418.97" departLane="best" from="111987010#1" to="690613620#1"/>
    <trip id="bike303" type="bike_bicycle" depart="3453.15" departLane="best" from="573710409#0" to="870991319#0"/>
    <trip id="bike304" type="bike_bicycle" depart="3464.55" departLane="best" from="-879177025#0" to="1090755562#1"/>
    <trip id="bike305" type="bike_bicycle" depart="3475.95" departLane="best" from="-690613617" to="-879177024#0"/>
    <trip id="bike306" type="bike_bicycle" depart="3487.34" departLane="best" from="651079954#1" to="427551889#1-AddedOffRampEdge"/>
    <trip id="bike307" type="bike_bicycle" depart="3498.74" departLane="best" from="580815653#2" to="183689805#1"/>
    <trip id="bike309" type="bike_bicycle" depart="3521.53" departLane="best" from="-690613619" to="1103029858#1"/>
    <trip id="bike311" type="bike_bicycle" depart="3544.33" departLane="best" from="1090755561#1" to="918082989"/>
    <trip id="bike313" type="bike_bicycle" depart="3567.12" departLane="best" from="1072529522#0" to="1090755562#1"/>
    <trip id="bike314" type="bike_bicycle" depart="3578.52" departLane="best" from="561748193" to="-690613625#1"/>
    <trip id="bike315" type="bike_bicycle" depart="3589.91" departLane="best" departSpeed="max" from="918082993" to="574917575#1"/>
</routes>
