<?xml version="1.0" encoding="UTF-8"?>

<!-- generated on 2024-03-25 15:56:11.341813 by osmWebWizard.py v1_19_0+0000-baa66a0f364
<configuration>
    <net-file value="C:\Users\Gabe Piano\Sumo\2024-03-25-15-55-45\osm.net.xml.gz"/>
    <output-trip-file value="C:\Users\Gabe Piano\Sumo\2024-03-25-15-55-45\osm.passenger.trips.xml"/>
    <route-file value="C:\Users\Gabe Piano\Sumo\2024-03-25-15-55-45\osm.passenger.rou.xml"/>
    <prefix value="veh"/>
    <trip-attributes value="departLane=&quot;best&quot;"/>
    <fringe-start-attributes value="departSpeed=&quot;max&quot;"/>
    <vehicle-class value="passenger"/>
    <lanes value="True"/>
    <fringe-factor value="5"/>
    <allow-fringe.min-length value="1000.0"/>
    <via-edge-types value="highway.motorway,highway.motorway_link,highway.trunk_link,highway.primary_link,highway.secondary_link,highway.tertiary_link"/>
    <min-distance value="300.0"/>
    <min-distance.fringe value="10.0"/>
    <remove-loops value="True"/>
    <validate value="True"/>
    <insertion-density value="12.0"/>
</configuration>
-->

<!-- generated on 2024-03-25 15:56:11 by Eclipse SUMO duarouter Version 1.19.0
<configuration xmlns:xsi="http://www.w3.org/2001/XMLSchema-instance" xsi:noNamespaceSchemaLocation="http://sumo.dlr.de/xsd/duarouterConfiguration.xsd">

    <input>
        <net-file value="C:\Users\Gabe Piano\Sumo\2024-03-25-15-55-45\osm.net.xml.gz"/>
        <route-files value="C:\Users\Gabe Piano\Sumo\2024-03-25-15-55-45\osm.passenger.trips.xml"/>
    </input>

    <output>
        <output-file value="C:\Users\Gabe Piano\Sumo\2024-03-25-15-55-45\osm.passenger.trips.xml.tmp"/>
        <alternatives-output value="NUL"/>
        <write-trips value="true"/>
    </output>

    <processing>
        <remove-loops value="true"/>
    </processing>

    <time>
        <begin value="0.0"/>
        <end value="3600.0"/>
    </time>

    <report>
        <no-warnings value="true"/>
        <ignore-errors value="true"/>
        <no-step-log value="true"/>
    </report>

</configuration>
-->

<routes xmlns:xsi="http://www.w3.org/2001/XMLSchema-instance" xsi:noNamespaceSchemaLocation="http://sumo.dlr.de/xsd/routes_file.xsd">
    <vType id="veh_passenger" vClass="passenger"/>
    <trip id="veh1" type="veh_passenger" depart="3.73" departLane="best" from="1103029835#1" to="1090755562#1"/>
    <trip id="veh2" type="veh_passenger" depart="7.47" departLane="best" from="662913537#0" to="628567782#1"/>
    <trip id="veh3" type="veh_passenger" depart="11.20" departLane="best" from="870991316" to="879177024#1"/>
    <trip id="veh4" type="veh_passenger" depart="14.94" departLane="best" from="1198531265" to="879172124"/>
    <trip id="veh5" type="veh_passenger" depart="18.67" departLane="best" departSpeed="max" from="109984882#0" to="183690512#3"/>
    <trip id="veh7" type="veh_passenger" depart="26.14" departLane="best" departSpeed="max" from="651079954#0" to="544489067#1"/>
    <trip id="veh8" type="veh_passenger" depart="29.87" departLane="best" departSpeed="max" from="109984882#0" to="158466192#1"/>
    <trip id="veh9" type="veh_passenger" depart="33.60" departLane="best" from="-690613625#0" to="-111987010#0"/>
    <trip id="veh10" type="veh_passenger" depart="37.34" departLane="best" from="-690613625#0" to="651079971"/>
    <trip id="veh11" type="veh_passenger" depart="41.07" departLane="best" from="111987010#1" to="879172096"/>
    <trip id="veh12" type="veh_passenger" depart="44.81" departLane="best" from="-879177025#0" to="1103029872"/>
    <trip id="veh14" type="veh_passenger" depart="52.27" departLane="best" from="767517245" to="574917575#1"/>
    <trip id="veh15" type="veh_passenger" depart="56.01" departLane="best" from="-690613625#0" to="651080033#1"/>
    <trip id="veh16" type="veh_passenger" depart="59.74" departLane="best" departSpeed="max" from="114216292" to="544489068#1"/>
    <trip id="veh19" type="veh_passenger" depart="70.94" departLane="best" from="651080033#1" to="-563021933"/>
    <trip id="veh20" type="veh_passenger" depart="74.68" departLane="best" departSpeed="max" from="109984882#0" to="1103029835#1"/>
    <trip id="veh21" type="veh_passenger" depart="78.41" departLane="best" from="690613625#1" to="109971518#1"/>
    <trip id="veh22" type="veh_passenger" depart="82.15" departLane="best" from="-872215578" to="1103029833#0"/>
    <trip id="veh24" type="veh_passenger" depart="89.61" departLane="best" from="114213957#1" to="1072529521"/>
    <trip id="veh25" type="veh_passenger" depart="93.35" departLane="best" from="1103029833#1" to="879172096"/>
    <trip id="veh26" type="veh_passenger" depart="97.08" departLane="best" departSpeed="max" from="651079954#0" to="574917579#1"/>
    <trip id="veh27" type="veh_passenger" depart="100.81" departLane="best" from="1033158925#0" to="651080033#1"/>
    <trip id="veh28" type="veh_passenger" depart="104.55" departLane="best" from="1033158923#0" to="114213938"/>
    <trip id="veh29" type="veh_passenger" depart="108.28" departLane="best" from="574917570#1" to="628567782#1"/>
    <trip id="veh30" type="veh_passenger" depart="112.02" departLane="best" from="759516987#2" to="665214718#1"/>
    <trip id="veh31" type="veh_passenger" depart="115.75" departLane="best" departSpeed="max" from="109984882#0" to="-544489067#0"/>
    <trip id="veh32" type="veh_passenger" depart="119.48" departLane="best" from="1103029872" to="1103029814#1"/>
    <trip id="veh33" type="veh_passenger" depart="123.22" departLane="best" departSpeed="max" from="109984882#0" to="-544489067#0"/>
    <trip id="veh34" type="veh_passenger" depart="126.95" departLane="best" departSpeed="max" from="870991315#0" to="1103029862#1"/>
    <trip id="veh35" type="veh_passenger" depart="130.69" departLane="best" from="870991316" to="180087573"/>
    <trip id="veh36" type="veh_passenger" depart="134.42" departLane="best" from="1103029833#1" to="109971518#1"/>
    <trip id="veh37" type="veh_passenger" depart="138.15" departLane="best" from="574917575#1" to="109971518#1"/>
    <trip id="veh38" type="veh_passenger" depart="141.89" departLane="best" departSpeed="max" from="583701022" to="870991319#0"/>
    <trip id="veh39" type="veh_passenger" depart="145.62" departLane="best" from="993441705" to="183690512#3"/>
    <trip id="veh41" type="veh_passenger" depart="153.09" departLane="best" from="111987010#1" to="624604434#0"/>
    <trip id="veh42" type="veh_passenger" depart="156.82" departLane="best" from="-690613617" to="1198531265"/>
    <trip id="veh43" type="veh_passenger" depart="160.56" departLane="best" from="-690613620#0" to="114213938"/>
    <trip id="veh44" type="veh_passenger" depart="164.29" departLane="best" from="993441705" to="366949696"/>
    <trip id="veh45" type="veh_passenger" depart="168.02" departLane="best" from="-879177025#1" to="870991314#0"/>
    <trip id="veh46" type="veh_passenger" depart="171.76" departLane="best" from="111987075" to="651080002"/>
    <trip id="veh47" type="veh_passenger" depart="175.49" departLane="best" from="651079976" to="366952449#1"/>
    <trip id="veh48" type="veh_passenger" depart="179.23" departLane="best" from="1103029833#1" to="624604434#1"/>
    <trip id="veh50" type="veh_passenger" depart="186.69" departLane="best" departSpeed="max" from="183685560#0" to="-690613620#0"/>
    <trip id="veh51" type="veh_passenger" depart="190.43" departLane="best" departSpeed="max" from="870991315#0" to="109971518#1"/>
    <trip id="veh52" type="veh_passenger" depart="194.16" departLane="best" from="544489067#1" to="1033158919#1"/>
    <trip id="veh53" type="veh_passenger" depart="197.90" departLane="best" from="870991328#1" to="870991314#1"/>
    <trip id="veh54" type="veh_passenger" depart="201.63" departLane="best" from="1103029862#1" to="624604434#1"/>
    <trip id="veh55" type="veh_passenger" depart="205.36" departLane="best" from="624604434#0" to="-918082989"/>
    <trip id="veh56" type="veh_passenger" depart="209.10" departLane="best" departSpeed="max" from="665214722" to="366952449#1"/>
    <trip id="veh57" type="veh_passenger" depart="212.83" departLane="best" departSpeed="max" from="665214722" to="366949696"/>
    <trip id="veh58" type="veh_passenger" depart="216.56" departLane="best" from="-111987010#0" to="1103029863#1"/>
    <trip id="veh59" type="veh_passenger" depart="220.30" departLane="best" from="-183543979#1" to="-642893603"/>
    <trip id="veh60" type="veh_passenger" depart="224.03" departLane="best" departSpeed="max" from="870991315#0" to="758887472"/>
    <trip id="veh61" type="veh_passenger" depart="227.77" departLane="best" from="1103029863#1" to="-563021933"/>
    <trip id="veh62" type="veh_passenger" depart="231.50" departLane="best" departSpeed="max" from="870991315#0" to="879177024#1"/>
    <trip id="veh63" type="veh_passenger" depart="235.23" departLane="best" from="-797720294" to="183543979#1"/>
    <trip id="veh64" type="veh_passenger" depart="238.97" departLane="best" from="-690613625#0" to="662913524"/>
    <trip id="veh65" type="veh_passenger" depart="242.70" departLane="best" departSpeed="max" from="665214722" to="-879177024#0"/>
    <trip id="veh66" type="veh_passenger" depart="246.44" departLane="best" from="183689805#1" to="544489068#1"/>
    <trip id="veh67" type="veh_passenger" depart="250.17" departLane="best" from="1103029833#1" to="870991314#1"/>
    <trip id="veh68" type="veh_passenger" depart="253.90" departLane="best" from="1198531265" to="1072529521"/>
    <trip id="veh69" type="veh_passenger" depart="257.64" departLane="best" from="573710407" to="651080033#1"/>
    <trip id="veh70" type="veh_passenger" depart="261.37" departLane="best" from="1090755561#1" to="1103029858#1"/>
    <trip id="veh71" type="veh_passenger" depart="265.11" departLane="best" from="993441705" to="624604435#0"/>
    <trip id="veh72" type="veh_passenger" depart="268.84" departLane="best" from="180087572" to="183690512#3"/>
    <trip id="veh73" type="veh_passenger" depart="272.57" departLane="best" from="879177025#1" to="109971518#1"/>
    <trip id="veh75" type="veh_passenger" depart="280.04" departLane="best" departSpeed="max" from="109984882#0" to="1090755562#1"/>
    <trip id="veh76" type="veh_passenger" depart="283.77" departLane="best" from="690613620#1" to="624604434#0"/>
    <trip id="veh77" type="veh_passenger" depart="287.51" departLane="best" departSpeed="max" from="109984882#0" to="870991328#0"/>
    <trip id="veh79" type="veh_passenger" depart="294.98" departLane="best" departSpeed="max" from="109984882#0" to="628567782#1"/>
    <trip id="veh80" type="veh_passenger" depart="298.71" departLane="best" departSpeed="max" from="109984882#0" to="-879177024#0"/>
    <trip id="veh81" type="veh_passenger" depart="302.44" departLane="best" from="879172096" to="561748189"/>
    <trip id="veh82" type="veh_passenger" depart="306.18" departLane="best" from="183685561" to="759516987#2"/>
    <trip id="veh85" type="veh_passenger" depart="317.38" departLane="best" from="1198531265" to="180087573"/>
    <trip id="veh86" type="veh_passenger" depart="321.11" departLane="best" from="662913519#1" to="628567782#1"/>
    <trip id="veh87" type="veh_passenger" depart="324.85" departLane="best" from="892972017#1" to="690613620#1"/>
    <trip id="veh88" type="veh_passenger" depart="328.58" departLane="best" departSpeed="max" from="1157435280#0" to="1103029873"/>
    <trip id="veh90" type="veh_passenger" depart="336.05" departLane="best" departSpeed="max" from="1059676183#0" to="180087573"/>
    <trip id="veh91" type="veh_passenger" depart="339.78" departLane="best" from="1198531265" to="1103029833#0"/>
    <trip id="veh92" type="veh_passenger" depart="343.52" departLane="best" departSpeed="max" from="109984882#0" to="871213663#1"/>
    <trip id="veh94" type="veh_passenger" depart="350.98" departLane="best" from="573710409#0" to="-563021933"/>
    <trip id="veh96" type="veh_passenger" depart="358.45" departLane="best" from="767517245" to="1033118917#1"/>
    <trip id="veh97" type="veh_passenger" depart="362.19" departLane="best" from="366949696" to="1072529521"/>
    <trip id="veh98" type="veh_passenger" depart="365.92" departLane="best" departSpeed="max" from="1157435280#0" to="-563021933"/>
    <trip id="veh99" type="veh_passenger" depart="369.65" departLane="best" departSpeed="max" from="114216292" to="894843877#1"/>
    <trip id="veh100" type="veh_passenger" depart="373.39" departLane="best" from="1103029833#1" to="683268248#1"/>
    <trip id="veh101" type="veh_passenger" depart="377.12" departLane="best" departSpeed="max" from="183685560#0" to="1198531265"/>
    <trip id="veh103" type="veh_passenger" depart="384.59" departLane="best" from="574917570#1" to="651080002"/>
    <trip id="veh104" type="veh_passenger" depart="388.32" departLane="best" from="1033158919#1" to="1103029835#2"/>
    <trip id="veh105" type="veh_passenger" depart="392.06" departLane="best" from="879177025#1" to="561748193"/>
    <trip id="veh106" type="veh_passenger" depart="395.79" departLane="best" from="573710407" to="660352582#1"/>
    <trip id="veh108" type="veh_passenger" depart="403.26" departLane="best" from="544489067#1" to="820090516"/>
    <trip id="veh109" type="veh_passenger" depart="406.99" departLane="best" from="1033158919#1" to="-879177025#0"/>
    <trip id="veh111" type="veh_passenger" depart="414.46" departLane="best" departSpeed="max" from="583701022" to="628567782#1"/>
    <trip id="veh112" type="veh_passenger" depart="418.19" departLane="best" departSpeed="max" from="109984882#0" to="-872215578"/>
    <trip id="veh113" type="veh_passenger" depart="421.93" departLane="best" from="870991316" to="109971518#1"/>
    <trip id="veh116" type="veh_passenger" depart="433.13" departLane="best" from="561748189" to="-918082989"/>
    <trip id="veh117" type="veh_passenger" depart="436.86" departLane="best" from="1090755562#1" to="651080002"/>
    <trip id="veh118" type="veh_passenger" depart="440.60" departLane="best" departSpeed="max" from="109984882#0" to="1157435279#1"/>
    <trip id="veh119" type="veh_passenger" depart="444.33" departLane="best" from="1103029872" to="660352585"/>
    <trip id="veh120" type="veh_passenger" depart="448.07" departLane="best" from="690613620#1" to="180087573"/>
    <trip id="veh121" type="veh_passenger" depart="451.80" departLane="best" from="690613620#1" to="1072529521"/>
    <trip id="veh122" type="veh_passenger" depart="455.53" departLane="best" from="1103029833#1" to="879172096"/>
    <trip id="veh123" type="veh_passenger" depart="459.27" departLane="best" from="114213957#1" to="879172096"/>
    <trip id="veh124" type="veh_passenger" depart="463.00" departLane="best" from="758887472" to="651079972"/>
    <trip id="veh125" type="veh_passenger" depart="466.73" departLane="best" from="624604434#0" to="894843877#1"/>
    <trip id="veh126" type="veh_passenger" depart="470.47" departLane="best" departSpeed="max" from="651079954#0" to="111987010#0"/>
    <trip id="veh127" type="veh_passenger" depart="474.20" departLane="best" from="-690613625#1" to="1103029835#2"/>
    <trip id="veh128" type="veh_passenger" depart="477.94" departLane="best" departSpeed="max" from="651079954#0" to="879172096"/>
    <trip id="veh129" type="veh_passenger" depart="481.67" departLane="best" from="1033118917#0" to="-797720294"/>
    <trip id="veh130" type="veh_passenger" depart="485.40" departLane="best" from="-879177024#0" to="544489068#1"/>
    <trip id="veh131" type="veh_passenger" depart="489.14" departLane="best" from="1103029835#1" to="574917575#1"/>
    <trip id="veh134" type="veh_passenger" depart="500.34" departLane="best" from="767517245" to="-690613625#0"/>
    <trip id="veh135" type="veh_passenger" depart="504.07" departLane="best" from="1198531265" to="1103029833#0"/>
    <trip id="veh136" type="veh_passenger" depart="507.81" departLane="best" from="111987010#0" to="665214718#1"/>
    <trip id="veh138" type="veh_passenger" depart="515.27" departLane="best" from="662913537#0" to="544489068#1"/>
    <trip id="veh139" type="veh_passenger" depart="519.01" departLane="best" from="573710409#0" to="-111987075"/>
    <trip id="veh141" type="veh_passenger" depart="526.48" departLane="best" from="870991319#1" to="-872215578"/>
    <trip id="veh142" type="veh_passenger" depart="530.21" departLane="best" from="758887472" to="561748193"/>
    <trip id="veh143" type="veh_passenger" depart="533.94" departLane="best" from="1033118918" to="111987010#1"/>
    <trip id="veh144" type="veh_passenger" depart="537.68" departLane="best" from="1103029863#1" to="870991319#1"/>
    <trip id="veh145" type="veh_passenger" depart="541.41" departLane="best" from="-690613617" to="870991314#0"/>
    <trip id="veh146" type="veh_passenger" depart="545.15" departLane="best" from="870991319#0" to="1072529521"/>
    <trip id="veh147" type="veh_passenger" depart="548.88" departLane="best" departSpeed="max" from="109984882#0" to="-690613625#1"/>
    <trip id="veh150" type="veh_passenger" depart="560.08" departLane="best" from="1033158919#1" to="-642893603"/>
    <trip id="veh151" type="veh_passenger" depart="563.82" departLane="best" departSpeed="max" from="870991315#0" to="884613952"/>
    <trip id="veh152" type="veh_passenger" depart="567.55" departLane="best" from="-690613625#0" to="870991314#1"/>
    <trip id="veh153" type="veh_passenger" depart="571.28" departLane="best" from="-282194769" to="660352567"/>
    <trip id="veh154" type="veh_passenger" depart="575.02" departLane="best" from="-690613619" to="870991314#1"/>
    <trip id="veh155" type="veh_passenger" depart="578.75" departLane="best" from="690613620#1" to="109971518#1"/>
    <trip id="veh157" type="veh_passenger" depart="586.22" departLane="best" departSpeed="max" from="109984882#0" to="-690613625#1"/>
    <trip id="veh158" type="veh_passenger" depart="589.95" departLane="best" departSpeed="max" from="183685560#0" to="1103029856#1"/>
    <trip id="veh159" type="veh_passenger" depart="593.69" departLane="best" from="690613617" to="109971518#1"/>
    <trip id="veh161" type="veh_passenger" depart="601.15" departLane="best" from="-111987010#0" to="870991314#1"/>
    <trip id="veh162" type="veh_passenger" depart="604.89" departLane="best" from="-879177025#1" to="1103029833#0"/>
    <trip id="veh164" type="veh_passenger" depart="612.36" departLane="best" from="892972017#1" to="366952449#1"/>
    <trip id="veh165" type="veh_passenger" depart="616.09" departLane="best" from="879172096" to="-797720294"/>
    <trip id="veh166" type="veh_passenger" depart="619.82" departLane="best" from="879177025#1" to="1033158919#1"/>
    <trip id="veh167" type="veh_passenger" depart="623.56" departLane="best" from="879177025#0" to="109971518#1"/>
    <trip id="veh169" type="veh_passenger" depart="631.03" departLane="best" from="662913519#1" to="1103029862#1"/>
    <trip id="veh170" type="veh_passenger" depart="634.76" departLane="best" from="624604434#0" to="183690512#3"/>
    <trip id="veh171" type="veh_passenger" depart="638.49" departLane="best" departSpeed="max" from="114216292" to="561748193"/>
    <trip id="veh173" type="veh_passenger" depart="645.96" departLane="best" from="573710407" to="651080025"/>
    <trip id="veh174" type="veh_passenger" depart="649.69" departLane="best" from="662913537#0" to="628567782#1"/>
    <trip id="veh175" type="veh_passenger" depart="653.43" departLane="best" from="114213957#1" to="690613617"/>
    <trip id="veh176" type="veh_passenger" depart="657.16" departLane="best" departSpeed="max" from="651079954#0" to="1103029863#2"/>
    <trip id="veh178" type="veh_passenger" depart="664.63" departLane="best" from="660352582#1" to="1103029856#1"/>
    <trip id="veh179" type="veh_passenger" depart="668.36" departLane="best" from="1103029863#2" to="1157435279#1"/>
    <trip id="veh180" type="veh_passenger" depart="672.10" departLane="best" departSpeed="max" from="1157435280#0" to="1103029835#2"/>
    <trip id="veh181" type="veh_passenger" depart="675.83" departLane="best" from="-879177025#1" to="1198531265"/>
    <trip id="veh182" type="veh_passenger" depart="679.57" departLane="best" from="-918082989" to="628567782#1"/>
    <trip id="veh183" type="veh_passenger" depart="683.30" departLane="best" from="1103029862#1" to="544489068#1"/>
    <trip id="veh184" type="veh_passenger" depart="687.03" departLane="best" from="-111987010#0" to="1103029833#1"/>
    <trip id="veh185" type="veh_passenger" depart="690.77" departLane="best" departSpeed="max" from="651079954#0" to="180087573"/>
    <trip id="veh187" type="veh_passenger" depart="698.23" departLane="best" from="183685561" to="870991319#1"/>
    <trip id="veh188" type="veh_passenger" depart="701.97" departLane="best" from="-690613617" to="1033118917#1"/>
    <trip id="veh189" type="veh_passenger" depart="705.70" departLane="best" from="690613625#1" to="183690512#3"/>
    <trip id="veh190" type="veh_passenger" depart="709.44" departLane="best" from="624604436" to="1103029872"/>
    <trip id="veh191" type="veh_passenger" depart="713.17" departLane="best" from="-690613625#1" to="660352585"/>
    <trip id="veh192" type="veh_passenger" depart="716.90" departLane="best" from="651079971" to="109971518#1"/>
    <trip id="veh194" type="veh_passenger" depart="724.37" departLane="best" departSpeed="max" from="109984882#0" to="180087573"/>
    <trip id="veh195" type="veh_passenger" depart="728.11" departLane="best" departSpeed="max" from="1157435280#0" to="624604434#0"/>
    <trip id="veh197" type="veh_passenger" depart="735.57" departLane="best" from="366952449#1" to="109971518#1"/>
    <trip id="veh198" type="veh_passenger" depart="739.31" departLane="best" departSpeed="max" from="651079954#0" to="111987010#0"/>
    <trip id="veh199" type="veh_passenger" depart="743.04" departLane="best" from="111987010#1" to="158466192#1"/>
    <trip id="veh200" type="veh_passenger" depart="746.78" departLane="best" from="1033158925#1" to="-879177025#0"/>
    <trip id="veh201" type="veh_passenger" depart="750.51" departLane="best" from="561748189" to="-563021933"/>
    <trip id="veh202" type="veh_passenger" depart="754.24" departLane="best" departSpeed="max" from="109984882#0" to="775185678"/>
    <trip id="veh203" type="veh_passenger" depart="757.98" departLane="best" departSpeed="max" from="183685560#0" to="-690613625#0"/>
    <trip id="veh204" type="veh_passenger" depart="761.71" departLane="best" from="651079954#1" to="894843877#1"/>
    <trip id="veh205" type="veh_passenger" depart="765.44" departLane="best" departSpeed="max" from="583701022" to="879177024#1"/>
    <trip id="veh206" type="veh_passenger" depart="769.18" departLane="best" from="870991316" to="574917579#1"/>
    <trip id="veh207" type="veh_passenger" depart="772.91" departLane="best" from="660352582#1" to="183690512#3"/>
    <trip id="veh208" type="veh_passenger" depart="776.65" departLane="best" from="758880904#1" to="544489068#1"/>
    <trip id="veh209" type="veh_passenger" depart="780.38" departLane="best" from="870991319#0" to="660352572#2"/>
    <trip id="veh210" type="veh_passenger" depart="784.11" departLane="best" from="183689805#1" to="109971518#1"/>
    <trip id="veh211" type="veh_passenger" depart="787.85" departLane="best" departSpeed="max" from="109984882#0" to="624604434#1"/>
    <trip id="veh212" type="veh_passenger" depart="791.58" departLane="best" departSpeed="max" from="665214722" to="183690512#3"/>
    <trip id="veh213" type="veh_passenger" depart="795.32" departLane="best" from="624604436" to="1103029833#0"/>
    <trip id="veh214" type="veh_passenger" depart="799.05" departLane="best" from="-690613625#1" to="1103029833#1"/>
    <trip id="veh215" type="veh_passenger" depart="802.78" departLane="best" from="573710407" to="-879177025#0"/>
    <trip id="veh217" type="veh_passenger" depart="810.25" departLane="best" from="660352567" to="872215569"/>
    <trip id="veh218" type="veh_passenger" depart="813.99" departLane="best" departSpeed="max" from="1157435280#0" to="544489067#1"/>
    <trip id="veh219" type="veh_passenger" depart="817.72" departLane="best" departSpeed="max" from="1157435280#0" to="1054125801#1"/>
    <trip id="veh220" type="veh_passenger" depart="821.45" departLane="best" from="1157435280#1" to="870991328#0"/>
    <trip id="veh223" type="veh_passenger" depart="832.65" departLane="best" departSpeed="max" from="114216292" to="111987010#0"/>
    <trip id="veh224" type="veh_passenger" depart="836.39" departLane="best" from="114213935#1" to="660352585"/>
    <trip id="veh226" type="veh_passenger" depart="843.86" departLane="best" from="573710409#0" to="574917575#1"/>
    <trip id="veh227" type="veh_passenger" depart="847.59" departLane="best" departSpeed="max" from="109984882#0" to="1090755561#1"/>
    <trip id="veh228" type="veh_passenger" depart="851.32" departLane="best" from="180087572" to="-544489067#0"/>
    <trip id="veh229" type="veh_passenger" depart="855.06" departLane="best" from="-111987010#0" to="628567782#1"/>
    <trip id="veh230" type="veh_passenger" depart="858.79" departLane="best" departSpeed="max" from="1157435280#0" to="1033118917#0"/>
    <trip id="veh231" type="veh_passenger" depart="862.53" departLane="best" departSpeed="max" from="183685560#0" to="-879177024#0"/>
    <trip id="veh234" type="veh_passenger" depart="873.73" departLane="best" from="-282194769" to="624604434#1"/>
    <trip id="veh235" type="veh_passenger" depart="877.46" departLane="best" from="1033118917#0" to="180087573"/>
    <trip id="veh236" type="veh_passenger" depart="881.19" departLane="best" from="-690613617" to="114213938"/>
    <trip id="veh237" type="veh_passenger" depart="884.93" departLane="best" departSpeed="max" from="109984882#0" to="1103029863#2"/>
    <trip id="veh238" type="veh_passenger" depart="888.66" departLane="best" departSpeed="max" from="665214722" to="114213938"/>
    <trip id="veh239" type="veh_passenger" depart="892.40" departLane="best" departSpeed="max" from="665214722" to="758887472"/>
    <trip id="veh240" type="veh_passenger" depart="896.13" departLane="best" from="1103029814#1" to="690613619"/>
    <trip id="veh241" type="veh_passenger" depart="899.86" departLane="best" from="-183543979#1" to="366952449#1"/>
    <trip id="veh242" type="veh_passenger" depart="903.60" departLane="best" from="993441705" to="-111987010#0"/>
    <trip id="veh243" type="veh_passenger" depart="907.33" departLane="best" departSpeed="max" from="651079954#0" to="683268239"/>
    <trip id="veh244" type="veh_passenger" depart="911.07" departLane="best" departSpeed="max" from="651079954#0" to="660352585"/>
    <trip id="veh246" type="veh_passenger" depart="918.53" departLane="best" from="-183543979#1" to="-918082989"/>
    <trip id="veh247" type="veh_passenger" depart="922.27" departLane="best" from="-879177025#1" to="628567782#1"/>
    <trip id="veh248" type="veh_passenger" depart="926.00" departLane="best" from="574917579#1" to="1090755561#1"/>
    <trip id="veh249" type="veh_passenger" depart="929.74" departLane="best" from="651080031" to="662913537#0"/>
    <trip id="veh250" type="veh_passenger" depart="933.47" departLane="best" from="1033158925#0" to="574917575#1"/>
    <trip id="veh251" type="veh_passenger" depart="937.20" departLane="best" from="665214718#1" to="-797720294"/>
    <trip id="veh252" type="veh_passenger" depart="940.94" departLane="best" from="-690613625#1" to="-879177025#1"/>
    <trip id="veh254" type="veh_passenger" depart="948.40" departLane="best" from="1103029863#2" to="628567782#1"/>
    <trip id="veh255" type="veh_passenger" depart="952.14" departLane="best" from="-879177025#0" to="1157435279#1"/>
    <trip id="veh256" type="veh_passenger" depart="955.87" departLane="best" from="660352572#2" to="690613617"/>
    <trip id="veh257" type="veh_passenger" depart="959.61" departLane="best" from="544489067#1" to="665214718#1"/>
    <trip id="veh259" type="veh_passenger" depart="967.07" departLane="best" from="-879177025#1" to="892972017#1"/>
    <trip id="veh260" type="veh_passenger" depart="970.81" departLane="best" departSpeed="max" from="665214722" to="-111987010#0"/>
    <trip id="veh261" type="veh_passenger" depart="974.54" departLane="best" from="573710409#0" to="114213935#1"/>
    <trip id="veh262" type="veh_passenger" depart="978.28" departLane="best" from="544489068#1" to="1103029873"/>
    <trip id="veh264" type="veh_passenger" depart="985.74" departLane="best" from="-879177024#0" to="-879177025#0"/>
    <trip id="veh267" type="veh_passenger" depart="996.94" departLane="best" from="662913524" to="879177025#1"/>
    <trip id="veh268" type="veh_passenger" depart="1000.68" departLane="best" from="1103029833#1" to="690613620#1"/>
    <trip id="veh269" type="veh_passenger" depart="1004.41" departLane="best" from="561748193" to="183543979#1"/>
    <trip id="veh270" type="veh_passenger" depart="1008.15" departLane="best" from="180087572" to="651080033#1"/>
    <trip id="veh271" type="veh_passenger" depart="1011.88" departLane="best" from="1103029833#1" to="820090516"/>
    <trip id="veh272" type="veh_passenger" depart="1015.61" departLane="best" from="758880904#1" to="879177024#1"/>
    <trip id="veh273" type="veh_passenger" depart="1019.35" departLane="best" departSpeed="max" from="870991315#0" to="109971518#1"/>
    <trip id="veh274" type="veh_passenger" depart="1023.08" departLane="best" departSpeed="max" from="183685560#0" to="574917579#1"/>
    <trip id="veh275" type="veh_passenger" depart="1026.82" departLane="best" departSpeed="max" from="114216292" to="879172124"/>
    <trip id="veh277" type="veh_passenger" depart="1034.28" departLane="best" departSpeed="max" from="109984882#0" to="-690613619"/>
    <trip id="veh278" type="veh_passenger" depart="1038.02" departLane="best" from="-879177024#0" to="870991314#1"/>
    <trip id="veh279" type="veh_passenger" depart="1041.75" departLane="best" from="651080031" to="1103029833#0"/>
    <trip id="veh280" type="veh_passenger" depart="1045.49" departLane="best" from="111987075" to="879177024#1"/>