<?xml version="1.0" encoding="UTF-8"?>

<!-- generated on 2024-03-25 15:56:11.434831 by osmWebWizard.py v1_19_0+0000-baa66a0f364
<configuration>
    <net-file value="C:\Users\Gabe Piano\Sumo\2024-03-25-15-55-45\osm.net.xml.gz"/>
    <additional-files value="C:\Users\Gabe Piano\Sumo\2024-03-25-15-55-45\osm_stops.add.xml,C:\Users\Gabe Piano\Sumo\2024-03-25-15-55-45\osm_pt.rou.xml"/>
    <output-trip-file value="C:\Users\Gabe Piano\Sumo\2024-03-25-15-55-45\osm.pedestrian.trips.xml"/>
    <route-file value="C:\Users\Gabe Piano\Sumo\2024-03-25-15-55-45\osm.pedestrian.rou.xml"/>
    <persontrips value="True"/>
    <persontrip.walk-opposite-factor value="0.8"/>
    <prefix value="ped"/>
    <trip-attributes value="modes=&quot;public&quot;"/>
    <vehicle-class value="pedestrian"/>
    <fringe-factor value="1"/>
    <insertion-density value="10.0"/>
</configuration>
-->

<routes xmlns:xsi="http://www.w3.org/2001/XMLSchema-instance" xsi:noNamespaceSchemaLocation="http://sumo.dlr.de/xsd/routes_file.xsd">
    <vType id="ped_pedestrian" vClass="pedestrian"/>
    <person id="ped0" depart="0.00" type="ped_pedestrian">
        <personTrip from="645181686" to="-1095862682#1" modes="public"/>
    </person>
    <person id="ped1" depart="5.13" type="ped_pedestrian">
        <personTrip from="1072529524#0" to="103811735#2" modes="public"/>
    </person>
    <person id="ped2" depart="10.27" type="ped_pedestrian">
        <personTrip from="715197011#2" to="662913494#0" modes="public"/>
    </person>
    <person id="ped3" depart="15.40" type="ped_pedestrian">
        <personTrip from="871213663#0" to="-652283216" modes="public"/>
    </person>
    <person id="ped4" depart="20.54" type="ped_pedestrian">
        <personTrip from="1157435277#1" to="-1103029814#0" modes="public"/>
    </person>
    <person id="ped5" depart="25.67" type="ped_pedestrian">
        <personTrip from="103811735#0" to="347971672" modes="public"/>
    </person>
    <person id="ped6" depart="30.81" type="ped_pedestrian">
        <personTrip from="-1095862682#1" to="103811713#1" modes="public"/>
    </person>
    <person id="ped7" depart="35.94" type="ped_pedestrian">
        <personTrip from="651080015" to="425498187" modes="public"/>
    </person>
    <person id="ped8" depart="41.08" type="ped_pedestrian">
        <personTrip from="103811735#1" to="561748189" modes="public"/>
    </person>
    <person id="ped9" depart="46.21" type="ped_pedestrian">
        <personTrip from="864624418" to="-1001714096" modes="public"/>
    </person>
    <person id="ped10" depart="51.35" type="ped_pedestrian">
        <personTrip from="864624417" to="662913513#0" modes="public"/>
    </person>
    <person id="ped11" depart="56.48" type="ped_pedestrian">
        <personTrip from="1075135832#2" to="1001714081" modes="public"/>
    </person>
    <person id="ped12" depart="61.61" type="ped_pedestrian">
        <personTrip from="895757842" to="1075135832#0" modes="public"/>
    </person>
    <person id="ped13" depart="66.75" type="ped_pedestrian">
        <personTrip from="-684437041" to="-690613619" modes="public"/>
    </person>
    <person id="ped14" depart="71.88" type="ped_pedestrian">
        <personTrip from="864624435" to="573710401" modes="public"/>
    </person>
    <person id="ped15" depart="77.02" type="ped_pedestrian">
        <personTrip from="864624417" to="715197010#1" modes="public"/>
    </person>
    <person id="ped16" depart="82.15" type="ped_pedestrian">
        <personTrip from="423423404" to="91875567#2" modes="public"/>
    </person>
    <person id="ped17" depart="87.29" type="ped_pedestrian">
        <personTrip from="1103029870" to="472826247#0" modes="public"/>
    </person>
    <person id="ped18" depart="92.42" type="ped_pedestrian">
        <personTrip from="864624427" to="574917575#1" modes="public"/>
    </person>
    <person id="ped19" depart="97.56" type="ped_pedestrian">
        <personTrip from="870986535" to="538154665#1" modes="public"/>
    </person>
    <person id="ped20" depart="102.69" type="ped_pedestrian">
        <personTrip from="662913513#2" to="-114213957#0" modes="public"/>
    </person>
    <person id="ped21" depart="107.82" type="ped_pedestrian">
        <personTrip from="103811747#1" to="1073730516" modes="public"/>
    </person>
    <person id="ped22" depart="112.96" type="ped_pedestrian">
        <personTrip from="-640426784" to="103811748#1" modes="public"/>
    </person>
    <person id="ped23" depart="118.09" type="ped_pedestrian">
        <personTrip from="-690613625#0" to="1072631666#0" modes="public"/>
    </person>
    <person id="ped24" depart="123.23" type="ped_pedestrian">
        <personTrip from="642896772" to="1103029835#2" modes="public"/>
    </person>
    <person id="ped25" depart="128.36" type="ped_pedestrian">
        <personTrip from="1103029858#1" to="103811730" modes="public"/>
    </person>
    <person id="ped26" depart="133.50" type="ped_pedestrian">
        <personTrip from="1071408521" to="879177023#0" modes="public"/>
    </person>
    <person id="ped27" depart="138.63" type="ped_pedestrian">
        <personTrip from="651080009#1" to="574917543#1" modes="public"/>
    </person>
    <person id="ped28" depart="143.77" type="ped_pedestrian">
        <personTrip from="1026914346#0" to="715197010#0" modes="public"/>
    </person>
    <person id="ped29" depart="148.90" type="ped_pedestrian">
        <personTrip from="1001714111" to="1103029870" modes="public"/>
    </person>
    <person id="ped30" depart="154.04" type="ped_pedestrian">
        <personTrip from="93410906" to="651079968" modes="public"/>
    </person>
    <person id="ped31" depart="159.17" type="ped_pedestrian">
        <personTrip from="472826247#2" to="662913511#0" modes="public"/>
    </person>
    <person id="ped32" depart="164.30" type="ped_pedestrian">
        <personTrip from="864624433" to="810350241#0" modes="public"/>
    </person>
    <person id="ped33" depart="169.44" type="ped_pedestrian">
        <personTrip from="103811747#2" to="-1103029833#0" modes="public"/>
    </person>
    <person id="ped34" depart="174.57" type="ped_pedestrian">
        <personTrip from="1073795859" to="1071408521" modes="public"/>
    </person>
    <person id="ped35" depart="179.71" type="ped_pedestrian">
        <personTrip from="103811731#0" to="879177025#0" modes="public"/>
    </person>
    <person id="ped36" depart="184.84" type="ped_pedestrian">
        <personTrip from="870991320#0" to="1073794506" modes="public"/>
    </person>
    <person id="ped37" depart="189.98" type="ped_pedestrian">
        <personTrip from="651080031" to="1103029878#1" modes="public"/>
    </person>
    <person id="ped38" depart="195.11" type="ped_pedestrian">
        <personTrip from="876578442" to="1220177125" modes="public"/>
    </person>
    <person id="ped39" depart="200.25" type="ped_pedestrian">
        <personTrip from="1068364604#1" to="1054125799#1" modes="public"/>
    </person>
    <person id="ped40" depart="205.38" type="ped_pedestrian">
        <personTrip from="472826249" to="1068364603#1" modes="public"/>
    </person>
    <person id="ped41" depart="210.52" type="ped_pedestrian">
        <personTrip from="544489068#1" to="876145777" modes="public"/>
    </person>
    <person id="ped42" depart="215.65" type="ped_pedestrian">
        <personTrip from="1103029881" to="103811735#1" modes="public"/>
    </person>
    <person id="ped43" depart="220.78" type="ped_pedestrian">
        <personTrip from="993441705" to="366952449#1" modes="public"/>
    </person>
    <person id="ped44" depart="225.92" type="ped_pedestrian">
        <personTrip from="-684437040" to="-1210073750" modes="public"/>
    </person>
    <person id="ped45" depart="231.05" type="ped_pedestrian">
        <personTrip from="-759383469" to="624604436" modes="public"/>
    </person>
    <person id="ped46" depart="236.19" type="ped_pedestrian">
        <personTrip from="864624413" to="1157435277#1" modes="public"/>
    </person>
    <person id="ped47" depart="241.32" type="ped_pedestrian">
        <personTrip from="-472826248" to="1103029871" modes="public"/>
    </person>
    <person id="ped48" depart="246.46" type="ped_pedestrian">
        <personTrip from="993441705" to="423423400#2" modes="public"/>
    </person>
    <person id="ped49" depart="251.59" type="ped_pedestrian">
        <personTrip from="91875567#2" to="864646205" modes="public"/>
    </person>
    <person id="ped50" depart="256.73" type="ped_pedestrian">
        <personTrip from="-1071408521" to="690613620#1" modes="public"/>
    </person>
    <person id="ped51" depart="261.86" type="ped_pedestrian">
        <personTrip from="662913494#2" to="425470806" modes="public"/>
    </person>
    <person id="ped52" depart="267.00" type="ped_pedestrian">
        <personTrip from="1071408521" to="651079968" modes="public"/>
    </person>
    <person id="ped53" depart="272.13" type="ped_pedestrian">
        <personTrip from="-759383469" to="1174176093#0" modes="public"/>
    </person>
    <person id="ped54" depart="277.26" type="ped_pedestrian">
        <personTrip from="1203003335#2" to="894843877#2" modes="public"/>
    </person>
    <person id="ped55" depart="282.40" type="ped_pedestrian">
        <personTrip from="870991320#0" to="1068364603#1" modes="public"/>
    </person>
    <person id="ped56" depart="287.53" type="ped_pedestrian">
        <personTrip from="199426321" to="1033118917#1" modes="public"/>
    </person>
    <person id="ped57" depart="292.67" type="ped_pedestrian">
        <personTrip from="876578441" to="870991319#0" modes="public"/>
    </person>
    <person id="ped58" depart="297.80" type="ped_pedestrian">
        <personTrip from="1073747753#1" to="645181686" modes="public"/>
    </person>
    <person id="ped59" depart="302.94" type="ped_pedestrian">
        <personTrip from="574917543#1" to="-995177924" modes="public"/>
    </person>
    <person id="ped60" depart="308.07" type="ped_pedestrian">
        <personTrip from="775185670#0" to="425471061#0" modes="public"/>
    </person>
    <person id="ped61" depart="313.21" type="ped_pedestrian">
        <personTrip from="810350241#2" to="423423401#0" modes="public"/>
    </person>
    <person id="ped62" depart="318.34" type="ped_pedestrian">
        <personTrip from="-1001714081" to="1073800254" modes="public"/>
    </person>
    <person id="ped63" depart="323.47" type="ped_pedestrian">
        <personTrip from="-1075091951#1" to="879172122#0" modes="public"/>
    </person>
    <person id="ped64" depart="328.61" type="ped_pedestrian">
        <personTrip from="870991320#1" to="864624428" modes="public"/>
    </person>
    <person id="ped65" depart="333.74" type="ped_pedestrian">
        <personTrip from="1073794504#1" to="-472826247#0" modes="public"/>
    </person>
    <person id="ped66" depart="338.88" type="ped_pedestrian">
        <personTrip from="870991320#1" to="892602132" modes="public"/>
    </person>
    <person id="ped67" depart="344.01" type="ped_pedestrian">
        <personTrip from="-652283216" to="177420217" modes="public"/>
    </person>
    <person id="ped68" depart="349.15" type="ped_pedestrian">
        <personTrip from="-544489067#0" to="759383455#1" modes="public"/>
    </person>
    <person id="ped69" depart="354.28" type="ped_pedestrian">
        <personTrip from="781309125#0" to="-894788690" modes="public"/>
    </person>
    <person id="ped70" depart="359.42" type="ped_pedestrian">
        <personTrip from="151491021#2" to="427550859#1" modes="public"/>
    </person>
    <person id="ped71" depart="364.55" type="ped_pedestrian">
        <personTrip from="1068364604#1" to="870991319#0" modes="public"/>
    </person>
    <person id="ped72" depart="369.69" type="ped_pedestrian">
        <personTrip from="1166003920" to="103811731#0" modes="public"/>
    </person>
    <person id="ped73" depart="374.82" type="ped_pedestrian">
        <personTrip from="425471061#0" to="715197010#1" modes="public"/>
    </person>
    <person id="ped74" depart="379.95" type="ped_pedestrian">
        <personTrip from="103811718" to="1073794505" modes="public"/>
    </person>
    <person id="ped75" depart="385.09" type="ped_pedestrian">
        <personTrip from="993441702" to="651080015" modes="public"/>
    </person>
    <person id="ped76" depart="390.22" type="ped_pedestrian">
        <personTrip from="1174176093#1" to="423423398" modes="public"/>
    </person>
    <person id="ped77" depart="395.36" type="ped_pedestrian">
        <personTrip from="-879177025#0" to="103811747#0" modes="public"/>
    </person>
    <person id="ped78" depart="400.49" type="ped_pedestrian">
        <personTrip from="1075135832#1" to="544489112" modes="public"/>
    </person>
    <person id="ped79" depart="405.63" type="ped_pedestrian">
        <personTrip from="103811747#2" to="103811735#1" modes="public"/>
    </person>
    <person id="ped80" depart="410.76" type="ped_pedestrian">
        <personTrip from="-544489112" to="640426784" modes="public"/>
    </person>
    <person id="ped81" depart="415.90" type="ped_pedestrian">
        <personTrip from="103811747#2" to="876578439" modes="public"/>
    </person>
    <person id="ped82" depart="421.03" type="ped_pedestrian">
        <personTrip from="864646205" to="-544489112" modes="public"/>
    </person>
    <person id="ped83" depart="426.17" type="ped_pedestrian">
        <personTrip from="103811755" to="661083917#1" modes="public"/>
    </person>
    <person id="ped84" depart="431.30" type="ped_pedestrian">
        <personTrip from="103811731#1" to="-902926982" modes="public"/>
    </person>
    <person id="ped85" depart="436.43" type="ped_pedestrian">
        <personTrip from="879177023#0" to="538154664#0" modes="public"/>
    </person>
    <person id="ped86" depart="441.57" type="ped_pedestrian">
        <personTrip from="151491021#1" to="855258233#1" modes="public"/>
    </person>
    <person id="ped87" depart="446.70" type="ped_pedestrian">
        <personTrip from="864624417" to="1035894358" modes="public"/>
    </person>
    <person id="ped88" depart="451.84" type="ped_pedestrian">
        <personTrip from="-690613619" to="1174176092#1" modes="public"/>
    </person>
    <person id="ped89" depart="456.97" type="ped_pedestrian">
        <personTrip from="1166003920" to="1244284890#0" modes="public"/>
    </person>
    <person id="ped90" depart="462.11" type="ped_pedestrian">
        <personTrip from="715197010#0" to="661083918" modes="public"/>
    </person>
    <person id="ped91" depart="467.24" type="ped_pedestrian">
        <personTrip from="93407108" to="-690613619" modes="public"/>
    </person>
    <person id="ped92" depart="472.38" type="ped_pedestrian">
        <personTrip from="1103680335" to="1075135832#1" modes="public"/>
    </person>
    <person id="ped93" depart="477.51" type="ped_pedestrian">
        <personTrip from="870986535" to="1054125802" modes="public"/>
    </person>
    <person id="ped94" depart="482.64" type="ped_pedestrian">
        <personTrip from="1035894358" to="1203003335#0" modes="public"/>
    </person>
    <person id="ped95" depart="487.78" type="ped_pedestrian">
        <personTrip from="1157435277#1" to="1072631666#0" modes="public"/>
    </person>
    <person id="ped96" depart="492.91" type="ped_pedestrian">
        <personTrip from="1054125802" to="876578446#0" modes="public"/>
    </person>
    <person id="ped97" depart="498.05" type="ped_pedestrian">
        <personTrip from="1197045455#1" to="870986535" modes="public"/>
    </person>
    <person id="ped98" depart="503.18" type="ped_pedestrian">
        <personTrip from="427550859#1" to="-1219792380" modes="public"/>
    </person>
    <person id="ped99" depart="508.32" type="ped_pedestrian">
        <personTrip from="995177924" to="864624430" modes="public"/>
    </person>
    <person id="ped100" depart="513.45" type="ped_pedestrian">
        <personTrip from="91875567#1" to="879172096" modes="public"/>
    </person>
    <person id="ped101" depart="518.59" type="ped_pedestrian">
        <personTrip from="864646200" to="1026913468" modes="public"/>
    </person>
    <person id="ped102" depart="523.72" type="ped_pedestrian">
        <personTrip from="177420217" to="103811731#1" modes="public"/>
    </person>
    <person id="ped103" depart="528.86" type="ped_pedestrian">
        <personTrip from="1103680335" to="-472826247#1" modes="public"/>
    </person>
    <person id="ped104" depart="533.99" type="ped_pedestrian">
        <personTrip from="1103029870" to="93410850" modes="public"/>
    </person>
    <person id="ped105" depart="539.12" type="ped_pedestrian">
        <personTrip from="1068364604#1" to="855258233#1" modes="public"/>
    </person>
    <person id="ped106" depart="544.26" type="ped_pedestrian">
        <personTrip from="1210073750" to="1166003920" modes="public"/>
    </person>
    <person id="ped107" depart="549.39" type="ped_pedestrian">
        <personTrip from="895757842" to="993441702" modes="public"/>
    </person>
    <person id="ped108" depart="554.53" type="ped_pedestrian">
        <personTrip from="472826247#2" to="690613619" modes="public"/>
    </person>
    <person id="ped109" depart="559.66" type="ped_pedestrian">
        <personTrip from="1001714081" to="1073747753#0" modes="public"/>
    </person>
    <person id="ped110" depart="564.80" type="ped_pedestrian">
        <personTrip from="91875567#1" to="538154665#1" modes="public"/>
    </person>
    <person id="ped111" depart="569.93" type="ped_pedestrian">
        <personTrip from="425471061#1" to="758880902#0" modes="public"/>
    </person>
    <person id="ped112" depart="575.07" type="ped_pedestrian">
        <personTrip from="-472826247#0" to="544489068#1" modes="public"/>
    </person>
    <person id="ped113" depart="580.20" type="ped_pedestrian">
        <personTrip from="303418220" to="864646202#1" modes="public"/>
    </person>
    <person id="ped114" depart="585.34" type="ped_pedestrian">
        <personTrip from="1001714095" to="902926982" modes="public"/>
    </person>
    <person id="ped115" depart="590.47" type="ped_pedestrian">
        <personTrip from="-640426784" to="1033158916#1" modes="public"/>
    </person>
    <person id="ped116" depart="595.60" type="ped_pedestrian">
        <personTrip from="561964411" to="662913487" modes="public"/>
    </person>
    <person id="ped117" depart="600.74" type="ped_pedestrian">
        <personTrip from="103811748#2" to="-879177024#0" modes="public"/>
    </person>
    <person id="ped118" depart="605.87" type="ped_pedestrian">
        <personTrip from="870991328#1" to="1054125799#1" modes="public"/>
    </person>
    <person id="ped119" depart="611.01" type="ped_pedestrian">
        <personTrip from="561964411" to="574917575#1" modes="public"/>
    </person>
    <person id="ped120" depart="616.14" type="ped_pedestrian">
        <personTrip from="114216311" to="544489067#1" modes="public"/>
    </person>
    <person id="ped121" depart="621.28" type="ped_pedestrian">
        <personTrip from="423423399#1" to="879172124" modes="public"/>
    </person>
    <person id="ped122" depart="626.41" type="ped_pedestrian">
        <personTrip from="103811725" to="690613617" modes="public"/>
    </person>
    <person id="ped123" depart="631.55" type="ped_pedestrian">
        <personTrip from="103811755" to="1103029878#1" modes="public"/>
    </person>
    <person id="ped124" depart="636.68" type="ped_pedestrian">
        <personTrip from="661083918" to="1073747754" modes="public"/>
    </person>
    <person id="ped125" depart="641.81" type="ped_pedestrian">
        <personTrip from="1073795859" to="758880904#1" modes="public"/>
    </person>
    <person id="ped126" depart="646.95" type="ped_pedestrian">
        <personTrip from="-574917543#0" to="1219792379" modes="public"/>
    </person>
    <person id="ped127" depart="652.08" type="ped_pedestrian">
        <personTrip from="995177924" to="993441705" modes="public"/>
    </person>
    <person id="ped128" depart="657.22" type="ped_pedestrian">
        <personTrip from="-574917543#0" to="103811731#1" modes="public"/>
    </person>
    <person id="ped129" depart="662.35" type="ped_pedestrian">
        <personTrip from="1068364604#1" to="879172124" modes="public"/>
    </person>
    <person id="ped130" depart="667.49" type="ped_pedestrian">
        <personTrip from="870991327#0" to="870991327#0" modes="public"/>
    </person>
    <person id="ped131" depart="672.62" type="ped_pedestrian">
        <personTrip from="1103029858#1" to="1001714095" modes="public"/>
    </person>
    <person id="ped132" depart="677.76" type="ped_pedestrian">
        <personTrip from="864624429" to="662913513#2" modes="public"/>
    </person>
    <person id="ped133" depart="682.89" type="ped_pedestrian">
        <personTrip from="574917544" to="93410904" modes="public"/>
    </person>
    <person id="ped134" depart="688.03" type="ped_pedestrian">
        <personTrip from="651080031" to="-1001714097" modes="public"/>
    </person>
    <person id="ped135" depart="693.16" type="ped_pedestrian">
        <personTrip from="864624422" to="1073747753#1" modes="public"/>
    </person>
    <person id="ped136" depart="698.29" type="ped_pedestrian">
        <personTrip from="661083915" to="879177023#1" modes="public"/>
    </person>
    <person id="ped137" depart="703.43" type="ped_pedestrian">
        <personTrip from="-918082989" to="-870986536" modes="public"/>
    </person>
    <person id="ped138" depart="708.56" type="ped_pedestrian">
        <personTrip from="-690977711" to="472826247#1" modes="public"/>
    </person>
    <person id="ped139" depart="713.70" type="ped_pedestrian">
        <personTrip from="1072529510" to="573710407" modes="public"/>
    </person>
    <person id="ped140" depart="718.83" type="ped_pedestrian">
        <personTrip from="690613617" to="103811725" modes="public"/>
    </person>
    <person id="ped141" depart="723.97" type="ped_pedestrian">
        <personTrip from="640432418" to="1068364604#1" modes="public"/>
    </person>
    <person id="ped142" depart="729.10" type="ped_pedestrian">
        <personTrip from="177420218" to="876578439" modes="public"/>
    </person>
    <person id="ped143" depart="734.24" type="ped_pedestrian">
        <personTrip from="864624435" to="-684437041" modes="public"/>
    </person>
    <person id="ped144" depart="739.37" type="ped_pedestrian">
        <personTrip from="1166003920" to="1072532760" modes="public"/>
    </person>
    <person id="ped145" depart="744.51" type="ped_pedestrian">
        <personTrip from="-1001714095" to="803891519#0" modes="public"/>
    </person>
    <person id="ped146" depart="749.64" type="ped_pedestrian">
        <personTrip from="642896772" to="1068364603#1" modes="public"/>
    </person>
    <person id="ped147" depart="754.77" type="ped_pedestrian">
        <personTrip from="753312749#0" to="472826247#0" modes="public"/>
    </person>
    <person id="ped148" depart="759.91" type="ped_pedestrian">
        <personTrip from="1174176092#0" to="-1033118918" modes="public"/>
    </person>
    <person id="ped149" depart="765.04" type="ped_pedestrian">
        <personTrip from="-574917543#1" to="870991327#1" modes="public"/>
    </person>
    <person id="ped150" depart="770.18" type="ped_pedestrian">
        <personTrip from="876578439" to="425498187" modes="public"/>
    </person>
    <person id="ped151" depart="775.31" type="ped_pedestrian">
        <personTrip from="864624430" to="544489067#1" modes="public"/>
    </person>
    <person id="ped152" depart="780.45" type="ped_pedestrian">
        <personTrip from="-93410904" to="-892602132" modes="public"/>
    </person>
    <person id="ped153" depart="785.58" type="ped_pedestrian">
        <personTrip from="1073794504#1" to="876145777" modes="public"/>
    </person>
    <person id="ped154" depart="790.72" type="ped_pedestrian">
        <personTrip from="864624414" to="864646205" modes="public"/>
    </person>
    <person id="ped155" depart="795.85" type="ped_pedestrian">
        <personTrip from="876145777" to="103811730" modes="public"/>
    </person>
    <person id="ped156" depart="800.99" type="ped_pedestrian">
        <personTrip from="1054125802" to="-690613625#0" modes="public"/>
    </person>
    <person id="ped157" depart="806.12" type="ped_pedestrian">
        <personTrip from="810350241#2" to="870991327#2" modes="public"/>
    </person>
    <person id="ped158" depart="811.25" type="ped_pedestrian">
        <personTrip from="111987010#1" to="574917579#1" modes="public"/>
    </person>
    <person id="ped159" depart="816.39" type="ped_pedestrian">
        <personTrip from="1001714081" to="879172122#0" modes="public"/>
    </person>
    <person id="ped160" depart="821.52" type="ped_pedestrian">
        <personTrip from="870991316" to="923332709#0" modes="public"/>
    </person>
    <person id="ped161" depart="826.66" type="ped_pedestrian">
        <personTrip from="864624419" to="870991327#0" modes="public"/>
    </person>
    <person id="ped162" depart="831.79" type="ped_pedestrian">
        <personTrip from="-1095862682#1" to="715197011#2" modes="public"/>
    </person>
    <person id="ped163" depart="836.93" type="ped_pedestrian">
        <personTrip from="1075130874" to="879172122#1" modes="public"/>
    </person>
    <person id="ped164" depart="842.06" type="ped_pedestrian">
        <personTrip from="864624416#0" to="870991316" modes="public"/>
    </person>
    <person id="ped165" depart="847.20" type="ped_pedestrian">
        <personTrip from="864624419" to="1071408521" modes="public"/>
    </person>
    <person id="ped166" depart="852.33" type="ped_pedestrian">
        <personTrip from="855258233#2" to="-759383455#0" modes="public"/>
    </person>
    <person id="ped167" depart="857.46" type="ped_pedestrian">
        <personTrip from="870991319#0" to="864646204" modes="public"/>
    </person>
    <person id="ped168" depart="862.60" type="ped_pedestrian">
        <personTrip from="103811735#2" to="864624422" modes="public"/>
    </person>
    <person id="ped169" depart="867.73" type="ped_pedestrian">
        <personTrip from="1220177125" to="1073794504#0" modes="public"/>
    </person>
    <person id="ped170" depart="872.87" type="ped_pedestrian">
        <personTrip from="864624414" to="103811747#1" modes="public"/>
    </person>
    <person id="ped171" depart="878.00" type="ped_pedestrian">
        <personTrip from="-1095862682#0" to="1035894361" modes="public"/>
    </person>
    <person id="ped172" depart="883.14" type="ped_pedestrian">
        <personTrip from="1075091951#1" to="870991316" modes="public"/>
    </person>
    <person id="ped173" depart="888.27" type="ped_pedestrian">
        <personTrip from="91875567#0" to="1072631666#0" modes="public"/>
    </person>
    <person id="ped174" depart="893.41" type="ped_pedestrian">
        <personTrip from="651079968" to="1103029881" modes="public"/>
    </person>
    <person id="ped175" depart="898.54" type="ped_pedestrian">
        <personTrip from="923332710" to="423423404" modes="public"/>
    </person>
    <person id="ped176" depart="903.68" type="ped_pedestrian">
        <personTrip from="879177023#1" to="-870986536" modes="public"/>
    </person>
    <person id="ped177" depart="908.81" type="ped_pedestrian">
        <personTrip from="91875567#1" to="1033118917#1" modes="public"/>
    </person>
    <person id="ped178" depart="913.94" type="ped_pedestrian">
        <personTrip from="91851178" to="1068364604#1" modes="public"/>
    </person>
    <person id="ped179" depart="919.08" type="ped_pedestrian">
        <personTrip from="-759383455#0" to="1174176093#0" modes="public"/>
    </person>
    <person id="ped180" depart="924.21" type="ped_pedestrian">
        <personTrip from="715197010#0" to="1073794506" modes="public"/>
    </person>
    <person id="ped181" depart="929.35" type="ped_pedestrian">
        <personTrip from="573710407" to="40130692" modes="public"/>
    </person>
    <person id="ped182" depart="934.48" type="ped_pedestrian">
        <personTrip from="1103029873" to="538154664#2" modes="public"/>
    </person>
    <person id="ped183" depart="939.62" type="ped_pedestrian">
        <personTrip from="1054125804" to="662913543" modes="public"/>
    </person>
    <person id="ped184" depart="944.75" type="ped_pedestrian">
        <personTrip from="-1001714081" to="876578446#1" modes="public"/>
    </person>
    <person id="ped185" depart="949.89" type="ped_pedestrian">
        <personTrip from="425470806" to="690613619" modes="public"/>
    </person>
    <person id="ped186" depart="955.02" type="ped_pedestrian">
        <personTrip from="753312749#0" to="661083917#1" modes="public"/>
    </person>
    <person id="ped187" depart="960.16" type="ped_pedestrian">
        <personTrip from="1103029835#1" to="-544489112" modes="public"/>
    </person>
    <person id="ped188" depart="965.29" type="ped_pedestrian">
        <personTrip from="661083915" to="1075091951#2" modes="public"/>
    </person>
    <person id="ped189" depart="970.42" type="ped_pedestrian">
        <personTrip from="1073794506" to="864646200" modes="public"/>
    </person>
    <person id="ped190" depart="975.56" type="ped_pedestrian">
        <personTrip from="690613619" to="1073747754" modes="public"/>
    </person>
    <person id="ped191" depart="980.69" type="ped_pedestrian">
        <personTrip from="1073794504#2" to="111987075" modes="public"/>
    </person>
    <person id="ped192" depart="985.83" type="ped_pedestrian">
        <personTrip from="1103680335" to="1073747753#0" modes="public"/>
    </person>
    <person id="ped193" depart="990.96" type="ped_pedestrian">
        <personTrip from="-892602132" to="114216311" modes="public"/>
    </person>
    <person id="ped194" depart="996.10" type="ped_pedestrian">
        <personTrip from="879177024#1" to="662913494#0" modes="public"/>
    </person>