<?xml version="1.0" encoding="UTF-8"?>

<!-- generated on 2024-04-02 14:45:12.972120 by osmWebWizard.py v1_19_0+0000-baa66a0f364
<configuration>
    <net-file value="C:\Users\Gabe Piano\Sumo\2024-04-02-14-45-04\osm.net.xml.gz"/>
    <output-trip-file value="C:\Users\Gabe Piano\Sumo\2024-04-02-14-45-04\osm.bus.trips.xml"/>
    <route-file value="C:\Users\Gabe Piano\Sumo\2024-04-02-14-45-04\osm.bus.rou.xml"/>
    <prefix value="bus"/>
    <trip-attributes value="departLane=&quot;best&quot;"/>
    <fringe-start-attributes value="departSpeed=&quot;max&quot;"/>
    <vehicle-class value="bus"/>
    <fringe-factor value="5"/>
    <vclass value="bus"/>
    <via-edge-types value="highway.motorway,highway.motorway_link,highway.trunk_link,highway.primary_link,highway.secondary_link,highway.tertiary_link"/>
    <min-distance value="600.0"/>
    <min-distance.fringe value="10.0"/>
    <remove-loops value="True"/>
    <validate value="True"/>
    <insertion-density value="4.0"/>
</configuration>
-->

<!-- generated on 2024-04-02 14:45:12 by Eclipse SUMO duarouter Version 1.19.0
<configuration xmlns:xsi="http://www.w3.org/2001/XMLSchema-instance" xsi:noNamespaceSchemaLocation="http://sumo.dlr.de/xsd/duarouterConfiguration.xsd">

    <input>
        <net-file value="C:\Users\Gabe Piano\Sumo\2024-04-02-14-45-04\osm.net.xml.gz"/>
        <route-files value="C:\Users\Gabe Piano\Sumo\2024-04-02-14-45-04\osm.bus.trips.xml"/>
    </input>

    <output>
        <output-file value="C:\Users\Gabe Piano\Sumo\2024-04-02-14-45-04\osm.bus.trips.xml.tmp"/>
        <alternatives-output value="NUL"/>
        <write-trips value="true"/>
    </output>

    <processing>
        <remove-loops value="true"/>
    </processing>

    <time>
        <begin value="0.0"/>
        <end value="3600.0"/>
    </time>

    <report>
        <no-warnings value="true"/>
        <ignore-errors value="true"/>
        <no-step-log value="true"/>
    </report>

</configuration>
-->

<routes xmlns:xsi="http://www.w3.org/2001/XMLSchema-instance" xsi:noNamespaceSchemaLocation="http://sumo.dlr.de/xsd/routes_file.xsd">
    <vType id="bus_bus" vClass="bus"/>
    <trip id="bus1" type="bus_bus" depart="15.73" departLane="best" from="114213957#1" to="1090755562#1"/>
    <trip id="bus3" type="bus_bus" depart="47.20" departLane="best" from="879172124" to="879172096"/>
    <trip id="bus5" type="bus_bus" depart="78.67" departLane="best" from="1103029863#2" to="540589200"/>
    <trip id="bus8" type="bus_bus" depart="125.87" departLane="best" from="870991316" to="111987075"/>
    <trip id="bus9" type="bus_bus" depart="141.60" departLane="best" from="870991316" to="1103029866"/>
    <trip id="bus10" type="bus_bus" depart="157.34" departLane="best" from="1198531266" to="1054125801#1"/>
    <trip id="bus11" type="bus_bus" depart="173.07" departLane="best" departSpeed="max" from="918082993" to="-111987075"/>
    <trip id="bus12" type="bus_bus" depart="188.80" departLane="best" from="870991316" to="684278129"/>
    <trip id="bus14" type="bus_bus" depart="220.27" departLane="best" from="894843877#2" to="-642893603"/>
    <trip id="bus15" type="bus_bus" depart="236.00" departLane="best" from="-872215578" to="1103029833#0"/>
    <trip id="bus16" type="bus_bus" depart="251.74" departLane="best" from="-879177025#1" to="1103029863#2"/>
    <trip id="bus17" type="bus_bus" depart="267.47" departLane="best" departSpeed="max" from="665787416" to="1154677194#1"/>
    <trip id="bus19" type="bus_bus" depart="298.94" departLane="best" from="114213938" to="879172096"/>
    <trip id="bus21" type="bus_bus" depart="330.40" departLane="best" from="1103029814#1" to="684278129"/>
    <trip id="bus24" type="bus_bus" depart="377.60" departLane="best" from="1103029863#1" to="879177024#1"/>
    <trip id="bus27" type="bus_bus" depart="424.81" departLane="best" from="894843877#2" to="183690512#3"/>
    <trip id="bus29" type="bus_bus" depart="456.27" departLane="best" from="660352582#1" to="878958165#1"/>
    <trip id="bus30" type="bus_bus" depart="472.01" departLane="best" departSpeed="max" from="366882273" to="1090755562#1"/>
    <trip id="bus31" type="bus_bus" depart="487.74" departLane="best" departSpeed="max" from="993441705" to="540589200"/>
    <trip id="bus32" type="bus_bus" depart="503.47" departLane="best" from="-879177024#0" to="-642893603"/>
    <trip id="bus33" type="bus_bus" depart="519.21" departLane="best" from="1033118917#0" to="642896772"/>
    <trip id="bus36" type="bus_bus" depart="566.41" departLane="best" departSpeed="max" from="993441705" to="540589202"/>
    <trip id="bus37" type="bus_bus" depart="582.14" departLane="best" departSpeed="max" from="-540589202" to="683268248#1"/>
    <trip id="bus38" type="bus_bus" depart="597.87" departLane="best" from="-690613625#1" to="-872215578"/>
    <trip id="bus39" type="bus_bus" depart="613.61" departLane="best" from="114213938" to="642896772"/>
    <trip id="bus40" type="bus_bus" depart="629.34" departLane="best" from="1033118917#0" to="1203000717"/>
    <trip id="bus41" type="bus_bus" depart="645.07" departLane="best" from="544489068#1" to="879177025#1"/>
    <trip id="bus42" type="bus_bus" depart="660.81" departLane="best" departSpeed="max" from="580815653#0" to="1072529521"/>
    <trip id="bus43" type="bus_bus" depart="676.54" departLane="best" departSpeed="max" from="114216316" to="642896772"/>
    <trip id="bus44" type="bus_bus" depart="692.28" departLane="best" departSpeed="max" from="864498341" to="544489067#1"/>
    <trip id="bus45" type="bus_bus" depart="708.01" departLane="best" departSpeed="max" from="870991315#0" to="540589202"/>
    <trip id="bus46" type="bus_bus" depart="723.74" departLane="best" departSpeed="max" from="-540589202" to="878958179#2"/>
    <trip id="bus48" type="bus_bus" depart="755.21" departLane="best" from="1197045457" to="690613619"/>
    <trip id="bus50" type="bus_bus" depart="786.68" departLane="best" from="-690613625#0" to="758880904#1"/>
    <trip id="bus51" type="bus_bus" depart="802.41" departLane="best" departSpeed="max" from="864498341" to="1033158919#1"/>
    <trip id="bus52" type="bus_bus" depart="818.14" departLane="best" from="573710409#0" to="544489112"/>
    <trip id="bus54" type="bus_bus" depart="849.61" departLane="best" from="366949696" to="1090755562#1"/>
    <trip id="bus55" type="bus_bus" depart="865.34" departLane="best" from="628567782#0" to="684278129"/>
    <trip id="bus56" type="bus_bus" depart="881.08" departLane="best" from="1103029858#1" to="1111218371#2"/>
    <trip id="bus57" type="bus_bus" depart="896.81" departLane="best" departSpeed="max" from="993441705" to="651079954#1"/>
    <trip id="bus58" type="bus_bus" depart="912.54" departLane="best" from="427551889#1-AddedOffRampEdge" to="540589202"/>
    <trip id="bus59" type="bus_bus" depart="928.28" departLane="best" from="1033118918" to="1090755562#1"/>
    <trip id="bus61" type="bus_bus" depart="959.75" departLane="best" from="690613620#1" to="642896772"/>
    <trip id="bus63" type="bus_bus" depart="991.21" departLane="best" from="871213663#1" to="690613620#1"/>
    <trip id="bus64" type="bus_bus" depart="1006.95" departLane="best" from="111987010#0" to="651080031"/>
    <trip id="bus66" type="bus_bus" depart="1038.41" departLane="best" from="918082984" to="574917570#1"/>
    <trip id="bus67" type="bus_bus" depart="1054.15" departLane="best" from="870991316" to="1086988354"/>
    <trip id="bus68" type="bus_bus" depart="1069.88" departLane="best" from="-879177025#0" to="1198531266"/>
    <trip id="bus69" type="bus_bus" depart="1085.61" departLane="best" from="366949696" to="183690512#3"/>
    <trip id="bus71" type="bus_bus" depart="1117.08" departLane="best" departSpeed="max" from="993441705" to="-879177025#0"/>
    <trip id="bus72" type="bus_bus" depart="1132.81" departLane="best" departSpeed="max" from="366882273" to="114213935#0"/>
    <trip id="bus73" type="bus_bus" depart="1148.55" departLane="best" from="-642893603" to="1103029835#2"/>
    <trip id="bus74" type="bus_bus" depart="1164.28" departLane="best" from="1103029835#2" to="183689805#1"/>
    <trip id="bus75" type="bus_bus" depart="1180.01" departLane="best" from="366949696" to="1103029863#2"/>
    <trip id="bus76" type="bus_bus" depart="1195.75" departLane="best" from="-111987075" to="878958179#1"/>
    <trip id="bus77" type="bus_bus" depart="1211.48" departLane="best" from="540589200" to="870991324#1"/>
    <trip id="bus78" type="bus_bus" depart="1227.22" departLane="best" from="628567807" to="684278128"/>
    <trip id="bus79" type="bus_bus" depart="1242.95" departLane="best" departSpeed="max" from="918082993" to="878958179#2"/>
    <trip id="bus80" type="bus_bus" depart="1258.68" departLane="best" from="870991328#1" to="1072529521"/>
    <trip id="bus81" type="bus_bus" depart="1274.42" departLane="best" from="574917575#1" to="1090755562#1"/>
    <trip id="bus82" type="bus_bus" depart="1290.15" departLane="best" departSpeed="max" from="366882273" to="690613619"/>
    <trip id="bus83" type="bus_bus" depart="1305.88" departLane="best" from="158326567#0" to="918082982"/>
    <trip id="bus86" type="bus_bus" depart="1353.08" departLane="best" from="651079954#1" to="683268248#1"/>
    <trip id="bus87" type="bus_bus" depart="1368.82" departLane="best" from="1072529522#0" to="1111218371#2"/>
    <trip id="bus88" type="bus_bus" depart="1384.55" departLane="best" departSpeed="max" from="918082993" to="574917579#1"/>
    <trip id="bus89" type="bus_bus" depart="1400.28" departLane="best" from="628567782#0" to="690613625#1"/>
    <trip id="bus90" type="bus_bus" depart="1416.02" departLane="best" from="-690613619" to="574917579#1"/>
    <trip id="bus91" type="bus_bus" depart="1431.75" departLane="best" departSpeed="max" from="580815653#0" to="870991324#0"/>
    <trip id="bus92" type="bus_bus" depart="1447.48" departLane="best" from="544489067#1" to="1072529522#0"/>
    <trip id="bus94" type="bus_bus" depart="1478.95" departLane="best" from="1111218372#0" to="1033118917#1"/>
    <trip id="bus95" type="bus_bus" depart="1494.68" departLane="best" from="-544489067#0" to="1103029835#1"/>
    <trip id="bus97" type="bus_bus" depart="1526.15" departLane="best" departSpeed="max" from="366882273" to="574917579#1"/>
    <trip id="bus98" type="bus_bus" depart="1541.89" departLane="best" from="580815653#2" to="-879172095"/>
    <trip id="bus99" type="bus_bus" depart="1557.62" departLane="best" from="1103029858#1" to="683268248#1"/>
    <trip id="bus101" type="bus_bus" depart="1589.09" departLane="best" from="-690613619" to="1111218371#2"/>
    <trip id="bus103" type="bus_bus" depart="1620.55" departLane="best" from="690613625#1" to="183690512#3"/>
    <trip id="bus104" type="bus_bus" depart="1636.29" departLane="best" departSpeed="max" from="993441705" to="-918082989"/>
    <trip id="bus105" type="bus_bus" depart="1652.02" departLane="best" from="-690613625#1" to="1090755562#1"/>
    <trip id="bus109" type="bus_bus" depart="1714.95" departLane="best" from="665787414#1" to="918082982"/>
    <trip id="bus110" type="bus_bus" depart="1730.69" departLane="best" from="-684278128" to="-111987075"/>
    <trip id="bus111" type="bus_bus" depart="1746.42" departLane="best" from="870991319#1" to="1111218371#2"/>
    <trip id="bus112" type="bus_bus" depart="1762.15" departLane="best" from="-690613617" to="-544489067#0"/>
    <trip id="bus113" type="bus_bus" depart="1777.89" departLane="best" from="1033158925#0" to="1033118917#0"/>
    <trip id="bus114" type="bus_bus" depart="1793.62" departLane="best" from="114213957#1" to="624604436"/>
    <trip id="bus115" type="bus_bus" depart="1809.36" departLane="best" from="863227697" to="1090755562#1"/>
    <trip id="bus116" type="bus_bus" depart="1825.09" departLane="best" departSpeed="max" from="665787416" to="1103029862#1"/>
    <trip id="bus117" type="bus_bus" depart="1840.82" departLane="best" from="574917579#1" to="878958165#1"/>
    <trip id="bus118" type="bus_bus" depart="1856.56" departLane="best" from="894843877#2" to="-879177024#0"/>
    <trip id="bus119" type="bus_bus" depart="1872.29" departLane="best" from="366949696" to="1103029863#2"/>
    <trip id="bus120" type="bus_bus" depart="1888.02" departLane="best" from="111987010#0" to="767517245"/>
    <trip id="bus121" type="bus_bus" depart="1903.76" departLane="best" departSpeed="max" from="665787416" to="1103029858#1"/>
    <trip id="bus123" type="bus_bus" depart="1935.22" departLane="best" from="366952449#1" to="-111987075"/>
    <trip id="bus124" type="bus_bus" depart="1950.96" departLane="best" from="-690613625#1" to="871213663#1"/>
    <trip id="bus125" type="bus_bus" depart="1966.69" departLane="best" from="-879177025#1" to="544489068#1"/>
    <trip id="bus126" type="bus_bus" depart="1982.42" departLane="best" from="870991324#0" to="574917579#1"/>
    <trip id="bus128" type="bus_bus" depart="2013.89" departLane="best" departSpeed="max" from="870991315#0" to="870991324#1"/>
    <trip id="bus129" type="bus_bus" depart="2029.62" departLane="best" from="-879177025#0" to="1090755562#1"/>
    <trip id="bus131" type="bus_bus" depart="2061.09" departLane="best" from="1072529522#0" to="878958179#2"/>
    <trip id="bus132" type="bus_bus" depart="2076.83" departLane="best" from="872215569" to="918082981-AddedOnRampEdge"/>
    <trip id="bus133" type="bus_bus" depart="2092.56" departLane="best" from="870991319#0" to="871213663#1"/>
    <trip id="bus134" type="bus_bus" depart="2108.29" departLane="best" departSpeed="max" from="-540589202" to="690613617"/>
    <trip id="bus135" type="bus_bus" depart="2124.03" departLane="best" from="1197045457" to="878958179#2"/>
    <trip id="bus136" type="bus_bus" depart="2139.76" departLane="best" from="870991315#1" to="870991328#0"/>
    <trip id="bus137" type="bus_bus" depart="2155.49" departLane="best" from="870991319#0" to="1103029862#1"/>
    <trip id="bus138" type="bus_bus" depart="2171.23" departLane="best" departSpeed="max" from="870991315#0" to="918082989"/>
    <trip id="bus140" type="bus_bus" depart="2202.69" departLane="best" from="662913537#0" to="870991314#1"/>
    <trip id="bus141" type="bus_bus" depart="2218.43" departLane="best" from="544489112" to="1111218371#2"/>
    <trip id="bus142" type="bus_bus" depart="2234.16" departLane="best" departSpeed="max" from="870991315#0" to="1103029814#1"/>
    <trip id="bus143" type="bus_bus" depart="2249.89" departLane="best" from="1197045457" to="870991328#0"/>
    <trip id="bus144" type="bus_bus" depart="2265.63" departLane="best" departSpeed="max" from="918082993" to="1103029866"/>
    <trip id="bus146" type="bus_bus" depart="2297.09" departLane="best" departSpeed="max" from="993441705" to="540589202"/>
    <trip id="bus147" type="bus_bus" depart="2312.83" departLane="best" from="918082986" to="1033118917#0"/>
    <trip id="bus148" type="bus_bus" depart="2328.56" departLane="best" departSpeed="max" from="918082993" to="1072529521"/>
    <trip id="bus149" type="bus_bus" depart="2344.30" departLane="best" departSpeed="max" from="918082993" to="1103029862#1"/>
    <trip id="bus150" type="bus_bus" depart="2360.03" departLane="best" from="1033118917#0" to="1203000717"/>
    <trip id="bus152" type="bus_bus" depart="2391.50" departLane="best" from="665214718#1" to="540589202"/>
    <trip id="bus153" type="bus_bus" depart="2407.23" departLane="best" from="183689805#1" to="574917575#1"/>
    <trip id="bus155" type="bus_bus" depart="2438.70" departLane="best" from="-111987010#0" to="878958179#1"/>
    <trip id="bus158" type="bus_bus" depart="2485.90" departLane="best" from="-690613617" to="-879177024#0"/>
    <trip id="bus162" type="bus_bus" depart="2548.83" departLane="best" departSpeed="max" from="366882273" to="1111218371#2"/>
    <trip id="bus163" type="bus_bus" depart="2564.56" departLane="best" from="1033158919#1" to="1154677194#1"/>
    <trip id="bus166" type="bus_bus" depart="2611.77" departLane="best" departSpeed="max" from="114216316" to="544489112"/>
    <trip id="bus167" type="bus_bus" depart="2627.50" departLane="best" from="-111987010#0" to="1111218371#1"/>
    <trip id="bus168" type="bus_bus" depart="2643.23" departLane="best" from="366952449#1" to="574917579#1"/>
    <trip id="bus169" type="bus_bus" depart="2658.97" departLane="best" from="684278128" to="183690512#3"/>
    <trip id="bus170" type="bus_bus" depart="2674.70" departLane="best" from="573710409#0" to="878958165#1"/>
    <trip id="bus171" type="bus_bus" depart="2690.43" departLane="best" departSpeed="max" from="870991315#0" to="1072529521"/>
    <trip id="bus172" type="bus_bus" depart="2706.17" departLane="best" from="-879172095" to="540589202"/>
    <trip id="bus173" type="bus_bus" depart="2721.90" departLane="best" departSpeed="max" from="665787416" to="111987075"/>
    <trip id="bus174" type="bus_bus" depart="2737.63" departLane="best" from="-690613625#0" to="1090755562#1"/>
    <trip id="bus176" type="bus_bus" depart="2769.10" departLane="best" from="111987010#1" to="183690512#3"/>
    <trip id="bus177" type="bus_bus" depart="2784.83" departLane="best" from="870991328#1" to="-690613625#0"/>
    <trip id="bus178" type="bus_bus" depart="2800.57" departLane="best" departSpeed="max" from="366882273" to="642896772"/>
    <trip id="bus179" type="bus_bus" depart="2816.30" departLane="best" from="1103029835#2" to="662913537#0"/>
    <trip id="bus180" type="bus_bus" depart="2832.03" departLane="best" departSpeed="max" from="580815653#0" to="1103029835#1"/>
    <trip id="bus181" type="bus_bus" depart="2847.77" departLane="best" from="-684278128" to="-111987075"/>
    <trip id="bus182" type="bus_bus" depart="2863.50" departLane="best" departSpeed="max" from="864498341" to="767517245"/>
    <trip id="bus184" type="bus_bus" depart="2894.97" departLane="best" from="1103029833#0" to="894843877#1"/>
    <trip id="bus185" type="bus_bus" depart="2910.70" departLane="best" from="580815653#2" to="-684278128"/>
    <trip id="bus186" type="bus_bus" depart="2926.44" departLane="best" from="111987075" to="684278129"/>
    <trip id="bus187" type="bus_bus" depart="2942.17" departLane="best" from="544489112" to="870991314#1"/>
    <trip id="bus188" type="bus_bus" depart="2957.90" departLane="best" from="661088487" to="-879177025#0"/>
    <trip id="bus191" type="bus_bus" depart="3005.10" departLane="best" from="870991323" to="544489112"/>
    <trip id="bus192" type="bus_bus" depart="3020.84" departLane="best" from="879177024#1" to="690613620#1"/>
    <trip id="bus193" type="bus_bus" depart="3036.57" departLane="best" from="573710409#0" to="1103029858#1"/>
    <trip id="bus194" type="bus_bus" depart="3052.30" departLane="best" from="111987075" to="642896772"/>
    <trip id="bus195" type="bus_bus" depart="3068.04" departLane="best" departSpeed="max" from="864498341" to="540589202"/>
    <trip id="bus196" type="bus_bus" depart="3083.77" departLane="best" departSpeed="max" from="665787416" to="1103029863#2"/>
    <trip id="bus197" type="bus_bus" depart="3099.50" departLane="best" from="-872215578" to="1111218371#1"/>
    <trip id="bus200" type="bus_bus" depart="3146.71" departLane="best" from="1111218372#0" to="708496109"/>
    <trip id="bus201" type="bus_bus" depart="3162.44" departLane="best" from="894843877#2" to="-690613620#0"/>
    <trip id="bus202" type="bus_bus" depart="3178.17" departLane="best" departSpeed="max" from="366882273" to="544489068#1"/>
    <trip id="bus203" type="bus_bus" depart="3193.91" departLane="best" departSpeed="max" from="366882273" to="1090755562#1"/>
    <trip id="bus204" type="bus_bus" depart="3209.64" departLane="best" departSpeed="max" from="366882273" to="878958165#1"/>
    <trip id="bus205" type="bus_bus" depart="3225.37" departLane="best" from="660352582#1" to="662913537#0"/>
    <trip id="bus207" type="bus_bus" depart="3256.84" departLane="best" from="158466192#1" to="-111987075"/>
    <trip id="bus209" type="bus_bus" depart="3288.31" departLane="best" from="870991316" to="879177025#1"/>
    <trip id="bus210" type="bus_bus" depart="3304.04" departLane="best" departSpeed="max" from="366882273" to="-690613625#1"/>
    <trip id="bus211" type="bus_bus" depart="3319.77" departLane="best" from="628567782#1" to="624604436"/>
    <trip id="bus212" type="bus_bus" depart="3335.51" departLane="best" from="1103029866" to="1090755562#1"/>
    <trip id="bus214" type="bus_bus" depart="3366.97" departLane="best" from="1198531265" to="660352585"/>
    <trip id="bus216" type="bus_bus" depart="3398.44" departLane="best" departSpeed="max" from="-540589202" to="642896772"/>
    <trip id="bus217" type="bus_bus" depart="3414.18" departLane="best" from="1033158925#0" to="183690512#3"/>
    <trip id="bus219" type="bus_bus" depart="3445.64" departLane="best" from="1103029863#1" to="111987010#1"/>
    <trip id="bus220" type="bus_bus" depart="3461.38" departLane="best" departSpeed="max" from="864498341" to="1157435280#0"/>
    <trip id="bus221" type="bus_bus" depart="3477.11" departLane="best" departSpeed="max" from="864498341" to="870991319#0"/>
    <trip id="bus223" type="bus_bus" depart="3508.58" departLane="best" departSpeed="max" from="-540589202" to="544489067#1"/>
    <trip id="bus224" type="bus_bus" depart="3524.31" departLane="best" departSpeed="max" from="993441705" to="114213935#2"/>
    <trip id="bus226" type="bus_bus" depart="3555.78" departLane="best" departSpeed="max" from="-540589202" to="1054125801#0"/>
    <trip id="bus227" type="bus_bus" depart="3571.51" departLane="best" from="651079971" to="1090755562#1"/>
    <trip id="bus228" type="bus_bus" depart="3587.24" departLane="best" departSpeed="max" from="864498341" to="1033118917#0"/>
</routes>
