<?xml version="1.0" encoding="UTF-8"?>

<!-- generated on 2024-04-02 14:45:13.939543 by osmWebWizard.py v1_19_0+0000-baa66a0f364
<configuration>
    <net-file value="C:\Users\Gabe Piano\Sumo\2024-04-02-14-45-04\osm.net.xml.gz"/>
    <output-trip-file value="C:\Users\Gabe Piano\Sumo\2024-04-02-14-45-04\osm.passenger.trips.xml"/>
    <route-file value="C:\Users\Gabe Piano\Sumo\2024-04-02-14-45-04\osm.passenger.rou.xml"/>
    <prefix value="veh"/>
    <trip-attributes value="departLane=&quot;best&quot;"/>
    <fringe-start-attributes value="departSpeed=&quot;max&quot;"/>
    <vehicle-class value="passenger"/>
    <lanes value="True"/>
    <fringe-factor value="5"/>
    <allow-fringe.min-length value="1000.0"/>
    <via-edge-types value="highway.motorway,highway.motorway_link,highway.trunk_link,highway.primary_link,highway.secondary_link,highway.tertiary_link"/>
    <min-distance value="300.0"/>
    <min-distance.fringe value="10.0"/>
    <remove-loops value="True"/>
    <validate value="True"/>
    <insertion-density value="12.0"/>
</configuration>
-->

<!-- generated on 2024-04-02 14:45:13 by Eclipse SUMO duarouter Version 1.19.0
<configuration xmlns:xsi="http://www.w3.org/2001/XMLSchema-instance" xsi:noNamespaceSchemaLocation="http://sumo.dlr.de/xsd/duarouterConfiguration.xsd">

    <input>
        <net-file value="C:\Users\Gabe Piano\Sumo\2024-04-02-14-45-04\osm.net.xml.gz"/>
        <route-files value="C:\Users\Gabe Piano\Sumo\2024-04-02-14-45-04\osm.passenger.trips.xml"/>
    </input>

    <output>
        <output-file value="C:\Users\Gabe Piano\Sumo\2024-04-02-14-45-04\osm.passenger.trips.xml.tmp"/>
        <alternatives-output value="NUL"/>
        <write-trips value="true"/>
    </output>

    <processing>
        <remove-loops value="true"/>
    </processing>

    <time>
        <begin value="0.0"/>
        <end value="3600.0"/>
    </time>

    <report>
        <no-warnings value="true"/>
        <ignore-errors value="true"/>
        <no-step-log value="true"/>
    </report>

</configuration>
-->

<routes xmlns:xsi="http://www.w3.org/2001/XMLSchema-instance" xsi:noNamespaceSchemaLocation="http://sumo.dlr.de/xsd/routes_file.xsd">
    <vType id="veh_passenger" vClass="passenger"/>
    <trip id="veh0" type="veh_passenger" depart="0.00" departLane="best" from="665787414#1" to="879172124"/>
    <trip id="veh1" type="veh_passenger" depart="5.24" departLane="best" from="114213938" to="1090755562#1"/>
    <trip id="veh2" type="veh_passenger" depart="10.49" departLane="best" from="767517245" to="660352590"/>
    <trip id="veh4" type="veh_passenger" depart="20.98" departLane="best" departSpeed="max" from="366882273" to="-544489067#0"/>
    <trip id="veh5" type="veh_passenger" depart="26.22" departLane="best" from="1103029863#2" to="540589202"/>
    <trip id="veh6" type="veh_passenger" depart="31.47" departLane="best" departSpeed="max" from="665787416" to="561748189"/>
    <trip id="veh7" type="veh_passenger" depart="36.71" departLane="best" from="662913537#0" to="624604434#1"/>
    <trip id="veh8" type="veh_passenger" depart="41.96" departLane="best" departSpeed="max" from="870991315#0" to="111987010#0"/>
    <trip id="veh9" type="veh_passenger" depart="47.20" departLane="best" departSpeed="max" from="870991315#0" to="665214718#1"/>
    <trip id="veh10" type="veh_passenger" depart="52.45" departLane="best" from="1197045457" to="1054125801#1"/>
    <trip id="veh11" type="veh_passenger" depart="57.69" departLane="best" from="918082986" to="114213935#0"/>
    <trip id="veh12" type="veh_passenger" depart="62.93" departLane="best" from="-879177024#0" to="-879177025#1"/>
    <trip id="veh13" type="veh_passenger" depart="68.18" departLane="best" from="870991324#0" to="624604436"/>
    <trip id="veh14" type="veh_passenger" depart="73.42" departLane="best" departSpeed="max" from="870991315#0" to="690613619"/>
    <trip id="veh15" type="veh_passenger" depart="78.67" departLane="best" departSpeed="max" from="580815653#0" to="918082981"/>
    <trip id="veh18" type="veh_passenger" depart="94.40" departLane="best" from="870991328#1" to="574917579#1"/>
    <trip id="veh19" type="veh_passenger" depart="99.65" departLane="best" from="1111218371#1" to="1111218371#2"/>
    <trip id="veh20" type="veh_passenger" depart="104.89" departLane="best" from="-872215578" to="1103029833#0"/>
    <trip id="veh21" type="veh_passenger" depart="110.13" departLane="best" from="-879177025#0" to="1103029866"/>
    <trip id="veh22" type="veh_passenger" depart="115.38" departLane="best" from="665214718#1" to="1157435279#0"/>
    <trip id="veh23" type="veh_passenger" depart="120.62" departLane="best" from="158466192#1" to="1090755562#1"/>
    <trip id="veh26" type="veh_passenger" depart="136.36" departLane="best" from="1090755561#1" to="690613619"/>
    <trip id="veh28" type="veh_passenger" depart="146.85" departLane="best" from="624604434#1" to="661088487"/>
    <trip id="veh29" type="veh_passenger" depart="152.09" departLane="best" from="870991319#1-AddedOffRampEdge" to="863227697"/>
    <trip id="veh32" type="veh_passenger" depart="167.82" departLane="best" from="1103029863#1" to="879177024#1"/>
    <trip id="veh35" type="veh_passenger" depart="183.56" departLane="best" from="879177024#1" to="183690512#3"/>
    <trip id="veh37" type="veh_passenger" depart="194.05" departLane="best" from="624604434#1" to="1103029862#1"/>
    <trip id="veh38" type="veh_passenger" depart="199.29" departLane="best" from="628567807" to="878958165#1"/>
    <trip id="veh39" type="veh_passenger" depart="204.54" departLane="best" departSpeed="max" from="366882273" to="1090755562#1"/>
    <trip id="veh40" type="veh_passenger" depart="209.78" departLane="best" departSpeed="max" from="993441705" to="540589202"/>
    <trip id="veh41" type="veh_passenger" depart="215.02" departLane="best" from="111987010#1" to="690613619"/>
    <trip id="veh42" type="veh_passenger" depart="220.27" departLane="best" from="879177025#1" to="642896772"/>
    <trip id="veh43" type="veh_passenger" depart="225.51" departLane="best" departSpeed="max" from="864498341" to="1198531266"/>
    <trip id="veh45" type="veh_passenger" depart="236.00" departLane="best" departSpeed="max" from="993441705" to="-872215578"/>
    <trip id="veh46" type="veh_passenger" depart="241.25" departLane="best" departSpeed="max" from="918082993" to="871213663#0"/>
    <trip id="veh47" type="veh_passenger" depart="246.49" departLane="best" from="111987075" to="684278129"/>
    <trip id="veh48" type="veh_passenger" depart="251.74" departLane="best" from="683268239" to="544489112"/>
    <trip id="veh50" type="veh_passenger" depart="262.23" departLane="best" from="918082989" to="158466192#1"/>
    <trip id="veh51" type="veh_passenger" depart="267.47" departLane="best" from="540589200" to="879177025#0"/>
    <trip id="veh52" type="veh_passenger" depart="272.71" departLane="best" from="-642893603" to="1103029862#1"/>
    <trip id="veh53" type="veh_passenger" depart="277.96" departLane="best" from="574917570#1" to="1072529521"/>
    <trip id="veh54" type="veh_passenger" depart="283.20" departLane="best" from="-690613620#0" to="-642893603"/>
    <trip id="veh55" type="veh_passenger" depart="288.45" departLane="best" departSpeed="max" from="114216316" to="642896772"/>
    <trip id="veh56" type="veh_passenger" depart="293.69" departLane="best" from="660352582#1" to="1054125801#0"/>
    <trip id="veh58" type="veh_passenger" depart="304.18" departLane="best" departSpeed="max" from="864498341" to="544489068#1"/>
    <trip id="veh59" type="veh_passenger" depart="309.43" departLane="best" departSpeed="max" from="-540589202" to="878958179#2"/>
    <trip id="veh60" type="veh_passenger" depart="314.67" departLane="best" from="872215569" to="870991319#0"/>
    <trip id="veh61" type="veh_passenger" depart="319.92" departLane="best" from="1197045457" to="690613620#1"/>
    <trip id="veh62" type="veh_passenger" depart="325.16" departLane="best" from="872215569" to="879177024#1"/>
    <trip id="veh66" type="veh_passenger" depart="346.14" departLane="best" departSpeed="max" from="366882273" to="1090755562#1"/>
    <trip id="veh67" type="veh_passenger" depart="351.38" departLane="best" departSpeed="max" from="580815653#0" to="-690613619"/>
    <trip id="veh69" type="veh_passenger" depart="361.87" departLane="best" departSpeed="max" from="993441705" to="651079954#1"/>
    <trip id="veh70" type="veh_passenger" depart="367.12" departLane="best" from="366952449#1" to="540589202"/>
    <trip id="veh71" type="veh_passenger" depart="372.36" departLane="best" from="1033118917#1" to="1090755562#1"/>
    <trip id="veh72" type="veh_passenger" depart="377.60" departLane="best" from="1197045457" to="624604434#1"/>
    <trip id="veh74" type="veh_passenger" depart="388.09" departLane="best" from="690613620#1" to="642896772"/>
    <trip id="veh76" type="veh_passenger" depart="398.58" departLane="best" from="894843877#2" to="-872215578"/>
    <trip id="veh78" type="veh_passenger" depart="409.07" departLane="best" from="918082981" to="574917575#1"/>
    <trip id="veh80" type="veh_passenger" depart="419.56" departLane="best" departSpeed="max" from="870991315#0" to="1072529521"/>
    <trip id="veh81" type="veh_passenger" depart="424.81" departLane="best" from="-879177024#0" to="158326567#0"/>
    <trip id="veh82" type="veh_passenger" depart="430.05" departLane="best" departSpeed="max" from="366882273" to="183690512#3"/>
    <trip id="veh83" type="veh_passenger" depart="435.29" departLane="best" from="758880904#1" to="660352585"/>
    <trip id="veh84" type="veh_passenger" depart="440.54" departLane="best" departSpeed="max" from="993441705" to="-879177025#1"/>
    <trip id="veh85" type="veh_passenger" depart="445.78" departLane="best" departSpeed="max" from="366882273" to="114213935#0"/>
    <trip id="veh86" type="veh_passenger" depart="451.03" departLane="best" from="870991328#1" to="1103029835#2"/>
    <trip id="veh87" type="veh_passenger" depart="456.27" departLane="best" from="1103029835#1" to="183690512#3"/>
    <trip id="veh88" type="veh_passenger" depart="461.52" departLane="best" departSpeed="max" from="366882273" to="1103029866"/>
    <trip id="veh89" type="veh_passenger" depart="466.76" departLane="best" from="-879177024#0" to="878958179#1"/>
    <trip id="veh90" type="veh_passenger" depart="472.01" departLane="best" from="427551889#1" to="871213663#0"/>
    <trip id="veh91" type="veh_passenger" depart="477.25" departLane="best" from="580815653#2" to="-690613620#0"/>
    <trip id="veh92" type="veh_passenger" depart="482.49" departLane="best" departSpeed="max" from="993441705" to="870991319#1-AddedOffRampEdge"/>
    <trip id="veh93" type="veh_passenger" depart="487.74" departLane="best" departSpeed="max" from="918082993" to="878958179#2"/>
    <trip id="veh94" type="veh_passenger" depart="492.98" departLane="best" from="870991323" to="1072529521"/>
    <trip id="veh95" type="veh_passenger" depart="498.23" departLane="best" from="561748193" to="1090755562#1"/>
    <trip id="veh96" type="veh_passenger" depart="503.47" departLane="best" departSpeed="max" from="366882273" to="-690613625#0"/>
    <trip id="veh99" type="veh_passenger" depart="519.21" departLane="best" from="624604434#1" to="-684278128"/>
    <trip id="veh100" type="veh_passenger" depart="524.45" departLane="best" from="1033158925#1" to="1111218371#2"/>
    <trip id="veh101" type="veh_passenger" depart="529.70" departLane="best" departSpeed="max" from="918082993" to="574917579#1"/>
    <trip id="veh102" type="veh_passenger" depart="534.94" departLane="best" departSpeed="max" from="580815653#0" to="-690613625#1"/>
    <trip id="veh104" type="veh_passenger" depart="545.43" departLane="best" from="574917575#1" to="870991324#1"/>
    <trip id="veh105" type="veh_passenger" depart="550.67" departLane="best" from="1054125801#0" to="-879177025#1"/>
    <trip id="veh106" type="veh_passenger" depart="555.92" departLane="best" from="544489067#1" to="1072529521"/>
    <trip id="veh107" type="veh_passenger" depart="561.16" departLane="best" from="1111218372#0" to="1033118918"/>
    <trip id="veh111" type="veh_passenger" depart="582.14" departLane="best" departSpeed="max" from="580815653#0" to="-879172095"/>
    <trip id="veh112" type="veh_passenger" depart="587.38" departLane="best" from="1103029858#1" to="683268248#1"/>
    <trip id="veh114" type="veh_passenger" depart="597.87" departLane="best" departSpeed="max" from="665787416" to="1111218371#2"/>
    <trip id="veh116" type="veh_passenger" depart="608.36" departLane="best" from="690613625#1" to="183690512#3"/>
    <trip id="veh117" type="veh_passenger" depart="613.61" departLane="best" departSpeed="max" from="993441705" to="-918082989"/>
    <trip id="veh118" type="veh_passenger" depart="618.85" departLane="best" from="-690613625#1" to="1090755562#1"/>
    <trip id="veh120" type="veh_passenger" depart="629.34" departLane="best" from="878958179#0" to="878958165#1"/>
    <trip id="veh121" type="veh_passenger" depart="634.59" departLane="best" from="158466192#1" to="1072529521"/>
    <trip id="veh123" type="veh_passenger" depart="645.07" departLane="best" from="660352585" to="918082982"/>
    <trip id="veh124" type="veh_passenger" depart="650.32" departLane="best" departSpeed="max" from="665787416" to="111987075"/>
    <trip id="veh125" type="veh_passenger" depart="655.56" departLane="best" departSpeed="max" from="870991315#0" to="1111218371#2"/>
    <trip id="veh126" type="veh_passenger" depart="660.81" departLane="best" departSpeed="max" from="665787416" to="879172124"/>
    <trip id="veh127" type="veh_passenger" depart="666.05" departLane="best" from="1033158919#1" to="1033118917#1"/>
    <trip id="veh128" type="veh_passenger" depart="671.30" departLane="best" from="879177025#1" to="561748193"/>
    <trip id="veh131" type="veh_passenger" depart="687.03" departLane="best" from="665214718#1" to="1103029862#1"/>
    <trip id="veh132" type="veh_passenger" depart="692.28" departLane="best" from="561748193" to="878958165#1"/>
    <trip id="veh133" type="veh_passenger" depart="697.52" departLane="best" from="870991323" to="-879177025#0"/>
    <trip id="veh134" type="veh_passenger" depart="702.76" departLane="best" departSpeed="max" from="366882273" to="1103029866"/>
    <trip id="veh135" type="veh_passenger" depart="708.01" departLane="best" from="111987010#0" to="775185677"/>
    <trip id="veh136" type="veh_passenger" depart="713.25" departLane="best" from="665214718#1" to="1103029862#1"/>
    <trip id="veh137" type="veh_passenger" depart="718.50" departLane="best" from="775185677" to="561748193"/>
    <trip id="veh138" type="veh_passenger" depart="723.74" departLane="best" departSpeed="max" from="366882273" to="-111987075"/>
    <trip id="veh139" type="veh_passenger" depart="728.99" departLane="best" from="-690613625#1" to="878958165#1"/>
    <trip id="veh140" type="veh_passenger" depart="734.23" departLane="best" from="879172096" to="561748189"/>
    <trip id="veh142" type="veh_passenger" depart="744.72" departLane="best" from="1197045457" to="878958165#1"/>
    <trip id="veh143" type="veh_passenger" depart="749.96" departLane="best" departSpeed="max" from="864498341" to="871213663#0"/>
    <trip id="veh145" type="veh_passenger" depart="760.45" departLane="best" departSpeed="max" from="864498341" to="878958165#1"/>
    <trip id="veh147" type="veh_passenger" depart="770.94" departLane="best" from="1033158925#1" to="878958179#2"/>
    <trip id="veh148" type="veh_passenger" depart="776.19" departLane="best" from="870991316" to="918082981-AddedOnRampEdge"/>
    <trip id="veh149" type="veh_passenger" depart="781.43" departLane="best" departSpeed="max" from="870991315#0" to="878958165#1"/>
    <trip id="veh150" type="veh_passenger" depart="786.68" departLane="best" departSpeed="max" from="-540589202" to="690613620#1"/>
    <trip id="veh152" type="veh_passenger" depart="797.17" departLane="best" departSpeed="max" from="870991315#0" to="1103029863#1"/>
    <trip id="veh153" type="veh_passenger" depart="802.41" departLane="best" departSpeed="max" from="864498341" to="1033118917#0"/>
    <trip id="veh154" type="veh_passenger" depart="807.65" departLane="best" from="662913537#0" to="870991314#1"/>
    <trip id="veh155" type="veh_passenger" depart="812.90" departLane="best" from="-872215578" to="1111218371#2"/>
    <trip id="veh156" type="veh_passenger" depart="818.14" departLane="best" departSpeed="max" from="864498341" to="1090755562#1"/>
    <trip id="veh157" type="veh_passenger" depart="823.39" departLane="best" departSpeed="max" from="-540589202" to="1072529522#0"/>
    <trip id="veh159" type="veh_passenger" depart="833.88" departLane="best" departSpeed="max" from="918082993" to="1103029866"/>
    <trip id="veh161" type="veh_passenger" depart="844.37" departLane="best" departSpeed="max" from="993441705" to="544489112"/>
    <trip id="veh162" type="veh_passenger" depart="849.61" departLane="best" from="918082981" to="1033118917#1"/>
    <trip id="veh163" type="veh_passenger" depart="854.85" departLane="best" departSpeed="max" from="918082993" to="1072529521"/>
    <trip id="veh164" type="veh_passenger" depart="860.10" departLane="best" from="-918082989" to="1103029862#1"/>
    <trip id="veh165" type="veh_passenger" depart="865.34" departLane="best" from="879177025#1" to="158466192#1"/>
    <trip id="veh167" type="veh_passenger" depart="875.83" departLane="best" from="651080031" to="540589202"/>
    <trip id="veh168" type="veh_passenger" depart="881.08" departLane="best" departSpeed="max" from="366882273" to="574917579#1"/>
    <trip id="veh169" type="veh_passenger" depart="886.32" departLane="best" from="111987075" to="683268239"/>
    <trip id="veh170" type="veh_passenger" depart="891.57" departLane="best" from="-111987010#0" to="878958179#1"/>
    <trip id="veh171" type="veh_passenger" depart="896.81" departLane="best" departSpeed="max" from="580815653#0" to="684278129"/>
    <trip id="veh173" type="veh_passenger" depart="907.30" departLane="best" from="158326567#0" to="544489067#1"/>
    <trip id="veh174" type="veh_passenger" depart="912.54" departLane="best" departSpeed="max" from="665787416" to="111987010#1"/>
    <trip id="veh176" type="veh_passenger" depart="923.03" departLane="best" from="-690613625#1" to="1111218371#2"/>
    <trip id="veh177" type="veh_passenger" depart="928.28" departLane="best" departSpeed="max" from="366882273" to="1111218371#2"/>
    <trip id="veh178" type="veh_passenger" depart="933.52" departLane="best" from="1033118918" to="1198531266"/>
    <trip id="veh179" type="veh_passenger" depart="938.77" departLane="best" from="918082981-AddedOnRampEdge" to="660352590"/>
    <trip id="veh181" type="veh_passenger" depart="949.26" departLane="best" departSpeed="max" from="114216316" to="561748189"/>
    <trip id="veh182" type="veh_passenger" depart="954.50" departLane="best" from="-111987010#0" to="1111218371#2"/>
    <trip id="veh183" type="veh_passenger" depart="959.75" departLane="best" from="366949696" to="574917579#1"/>
    <trip id="veh184" type="veh_passenger" depart="964.99" departLane="best" departSpeed="max" from="665787416" to="183690512#3"/>
    <trip id="veh185" type="veh_passenger" depart="970.23" departLane="best" from="427551889#1" to="1090755562#1"/>
    <trip id="veh186" type="veh_passenger" depart="975.48" departLane="best" from="561748189" to="878958165#1"/>
    <trip id="veh187" type="veh_passenger" depart="980.72" departLane="best" departSpeed="max" from="864498341" to="1072529521"/>
    <trip id="veh188" type="veh_passenger" depart="985.97" departLane="best" from="-872215578" to="540589202"/>
    <trip id="veh189" type="veh_passenger" depart="991.21" departLane="best" from="665214718#1" to="-111987075"/>
    <trip id="veh190" type="veh_passenger" depart="996.46" departLane="best" departSpeed="max" from="870991315#0" to="708496109"/>
    <trip id="veh191" type="veh_passenger" depart="1001.70" departLane="best" departSpeed="max" from="665787416" to="1090755562#1"/>
    <trip id="veh192" type="veh_passenger" depart="1006.95" departLane="best" from="1103029856#1" to="879172124"/>
    <trip id="veh193" type="veh_passenger" depart="1012.19" departLane="best" from="111987010#0" to="366949696"/>
    <trip id="veh194" type="veh_passenger" depart="1017.43" departLane="best" from="870991324#0" to="-872215578"/>
    <trip id="veh195" type="veh_passenger" depart="1022.68" departLane="best" departSpeed="max" from="366882273" to="642896772"/>
    <trip id="veh196" type="veh_passenger" depart="1027.92" departLane="best" from="1103029835#2" to="665214718#1"/>
    <trip id="veh197" type="veh_passenger" depart="1033.17" departLane="best" from="573710409#0" to="1103029835#1"/>
    <trip id="veh198" type="veh_passenger" depart="1038.41" departLane="best" departSpeed="max" from="665787416" to="111987010#0"/>
    <trip id="veh199" type="veh_passenger" depart="1043.66" departLane="best" from="863227697" to="775185677"/>
    <trip id="veh200" type="veh_passenger" depart="1048.90" departLane="best" from="-879177025#1" to="1203000717"/>
    <trip id="veh201" type="veh_passenger" depart="1054.15" departLane="best" from="1103029814#1" to="879177025#1"/>
    <trip id="veh202" type="veh_passenger" depart="1059.39" departLane="best" departSpeed="max" from="580815653#0" to="-690613620#0"/>
    <trip id="veh203" type="veh_passenger" depart="1064.64" departLane="best" from="111987010#1" to="870991324#0"/>
    <trip id="veh204" type="veh_passenger" depart="1069.88" departLane="best" from="540589200" to="870991314#1"/>
    <trip id="veh205" type="veh_passenger" depart="1075.12" departLane="best" departSpeed="max" from="665787416" to="918082982"/>
    <trip id="veh206" type="veh_passenger" depart="1080.37" departLane="best" from="651079971" to="879177025#0"/>
    <trip id="veh208" type="veh_passenger" depart="1090.86" departLane="best" from="-690613625#1" to="540589202"/>
    <trip id="veh209" type="veh_passenger" depart="1096.10" departLane="best" from="870991315#1" to="561748189"/>
    <trip id="veh211" type="veh_passenger" depart="1106.59" departLane="best" from="561748189" to="1103029858#1"/>
    <trip id="veh212" type="veh_passenger" depart="1111.84" departLane="best" from="111987010#0" to="642896772"/>
    <trip id="veh214" type="veh_passenger" depart="1122.32" departLane="best" from="661088487" to="1103029863#2"/>
    <trip id="veh215" type="veh_passenger" depart="1127.57" departLane="best" from="-690613625#1" to="1111218371#2"/>
    <trip id="veh219" type="veh_passenger" depart="1148.55" departLane="best" from="690613620#1" to="690613625#1"/>
    <trip id="veh220" type="veh_passenger" depart="1153.79" departLane="best" departSpeed="max" from="366882273" to="561748189"/>
    <trip id="veh221" type="veh_passenger" depart="1159.04" departLane="best" departSpeed="max" from="366882273" to="1090755562#1"/>
    <trip id="veh222" type="veh_passenger" depart="1164.28" departLane="best" departSpeed="max" from="366882273" to="878958165#1"/>
    <trip id="veh223" type="veh_passenger" depart="1169.53" departLane="best" from="628567807" to="665214718#1"/>
    <trip id="veh224" type="veh_passenger" depart="1174.77" departLane="best" from="870991324#1" to="767517245"/>
    <trip id="veh226" type="veh_passenger" depart="1185.26" departLane="best" from="1203000717" to="758880904#1"/>
    <trip id="veh227" type="veh_passenger" depart="1190.50" departLane="best" from="870991324#0" to="-879177025#0"/>
    <trip id="veh228" type="veh_passenger" depart="1195.75" departLane="best" departSpeed="max" from="366882273" to="-690613625#1"/>
    <trip id="veh229" type="veh_passenger" depart="1200.99" departLane="best" departSpeed="max" from="580815653#0" to="624604436"/>
    <trip id="veh230" type="veh_passenger" depart="1206.24" departLane="best" from="1103029866" to="1090755562#1"/>
    <trip id="veh231" type="veh_passenger" depart="1211.48" departLane="best" from="366952449#1" to="-544489067#0"/>
    <trip id="veh232" type="veh_passenger" depart="1216.73" departLane="best" from="544489068#1" to="1033158919#1"/>
    <trip id="veh233" type="veh_passenger" depart="1221.97" departLane="best" from="661088487" to="-544489067#0"/>
    <trip id="veh234" type="veh_passenger" depart="1227.22" departLane="best" departSpeed="max" from="366882273" to="573710409#0"/>
    <trip id="veh235" type="veh_passenger" depart="1232.46" departLane="best" departSpeed="max" from="-540589202" to="642896772"/>
    <trip id="veh236" type="veh_passenger" depart="1237.70" departLane="best" from="1033158919#1" to="183690512#3"/>
    <trip id="veh238" type="veh_passenger" depart="1248.19" departLane="best" from="1103029863#1" to="111987010#1"/>
    <trip id="veh240" type="veh_passenger" depart="1258.68" departLane="best" from="863227697" to="870991319#0"/>
    <trip id="veh241" type="veh_passenger" depart="1263.93" departLane="best" departSpeed="max" from="-540589202" to="544489112"/>
    <trip id="veh242" type="veh_passenger" depart="1269.17" departLane="best" departSpeed="max" from="993441705" to="114213935#2"/>
    <trip id="veh243" type="veh_passenger" depart="1274.42" departLane="best" departSpeed="max" from="665787416" to="863227697"/>
    <trip id="veh244" type="veh_passenger" depart="1279.66" departLane="best" departSpeed="max" from="665787416" to="758880904#1"/>
    <trip id="veh246" type="veh_passenger" depart="1290.15" departLane="best" departSpeed="max" from="-540589202" to="1054125801#0"/>
    <trip id="veh248" type="veh_passenger" depart="1300.64" departLane="best" from="624604435#0" to="1090755562#1"/>
    <trip id="veh249" type="veh_passenger" depart="1305.88" departLane="best" from="690613617" to="767517245"/>
    <trip id="veh250" type="veh_passenger" depart="1311.13" departLane="best" from="863227697" to="1033118917#1"/>
    <trip id="veh251" type="veh_passenger" depart="1316.37" departLane="best" departSpeed="max" from="870991315#0" to="894843877#1"/>
    <trip id="veh252" type="veh_passenger" depart="1321.62" departLane="best" from="-879177025#1" to="-544489067#0"/>
    <trip id="veh254" type="veh_passenger" depart="1332.11" departLane="best" from="-690613625#1" to="-872215578"/>
    <trip id="veh255" type="veh_passenger" depart="1337.35" departLane="best" from="684278128" to="642896772"/>
    <trip id="veh256" type="veh_passenger" depart="1342.59" departLane="best" from="879177025#0" to="775185678"/>
    <trip id="veh257" type="veh_passenger" depart="1347.84" departLane="best" from="870991324#0" to="624604436"/>
    <trip id="veh258" type="veh_passenger" depart="1353.08" departLane="best" from="1033118917#1" to="918082982"/>
    <trip id="veh259" type="veh_passenger" depart="1358.33" departLane="best" departSpeed="max" from="864498341" to="114213935#2"/>
    <trip id="veh260" type="veh_passenger" depart="1363.57" departLane="best" from="366949696" to="1157435279#1"/>
    <trip id="veh261" type="veh_passenger" depart="1368.82" departLane="best" from="574917575#1" to="114213935#1"/>
    <trip id="veh263" type="veh_passenger" depart="1379.31" departLane="best" from="665214718#1" to="871213663#0"/>
    <trip id="veh264" type="veh_passenger" depart="1384.55" departLane="best" from="690613620#1" to="158466192#1"/>
    <trip id="veh265" type="veh_passenger" depart="1389.79" departLane="best" from="759516987#2" to="894843877#1"/>
    <trip id="veh267" type="veh_passenger" depart="1400.28" departLane="best" departSpeed="max" from="580815653#0" to="427551889#1"/>
    <trip id="veh268" type="veh_passenger" depart="1405.53" departLane="best" from="366952449#1" to="-690613619"/>
    <trip id="veh270" type="veh_passenger" depart="1416.02" departLane="best" from="870991315#1" to="111987010#1"/>
    <trip id="veh274" type="veh_passenger" depart="1437.00" departLane="best" from="684278129" to="1072529521"/>
    <trip id="veh275" type="veh_passenger" depart="1442.24" departLane="best" from="1103029863#1" to="870991314#1"/>
    <trip id="veh276" type="veh_passenger" depart="1447.48" departLane="best" from="1198531265" to="878958165#1"/>
    <trip id="veh277" type="veh_passenger" depart="1452.73" departLane="best" from="-690613617" to="1103029866"/>
    <trip id="veh278" type="veh_passenger" depart="1457.97" departLane="best" from="111987075" to="879177024#1"/>
    <trip id="veh279" type="veh_passenger" depart="1463.22" departLane="best" from="544489067#1" to="684278129"/>
    <trip id="veh280" type="veh_passenger" depart="1468.46" departLane="best" from="684278128" to="642896772"/>
    <trip id="veh281" type="veh_passenger" depart="1473.71" departLane="best" from="573710409#0" to="870991314#0"/>
    <trip id="veh282" type="veh_passenger" depart="1478.95" departLane="best" from="-879177024#0" to="1090755562#1"/>
    <trip id="veh283" type="veh_passenger" depart="1484.20" departLane="best" from="-684278128" to="1111218371#2"/>
    <trip id="veh284" type="veh_passenger" depart="1489.44" departLane="best" from="628567807" to="366949696"/>
    <trip id="veh285" type="veh_passenger" depart="1494.68" departLane="best" departSpeed="max" from="580815653#0" to="1203000717"/>
    <trip id="veh286" type="veh_passenger" depart="1499.93" departLane="best" from="863227697" to="-879177024#0"/>
    <trip id="veh287" type="veh_passenger" depart="1505.17" departLane="best" from="-690613619" to="1103029863#1"/>
    <trip id="veh288" type="veh_passenger" depart="1510.42" departLane="best" from="-879177024#0" to="1033118918"/>
    <trip id="veh289" type="veh_passenger" depart="1515.66" departLane="best" departSpeed="max" from="580815653#0" to="759516987#2"/>
    <trip id="veh290" type="veh_passenger" depart="1520.91" departLane="best" from="1103029833#1" to="1090755562#1"/>
    <trip id="veh291" type="veh_passenger" depart="1526.15" departLane="best" from="561748193" to="690613617"/>
    <trip id="veh292" type="veh_passenger" depart="1531.40" departLane="best" departSpeed="max" from="918082993" to="540589202"/>