<?xml version="1.0" encoding="UTF-8"?>

<!-- generated on 2024-07-13 11:10:27 by Eclipse SUMO netedit Version 1.19.0
-->

<routes xmlns:xsi="http://www.w3.org/2001/XMLSchema-instance" xsi:noNamespaceSchemaLocation="http://sumo.dlr.de/xsd/routes_file.xsd">
    <!-- VTypes -->
    <vType id="Bus" vClass="bus" color="blue"/>
    <vType id="Car" vClass="passenger" color="yellow"/>
    <vType id="Jeep" vClass="passenger" color="magenta"/>
    <vType id="Motor" vClass="motorcycle" color="green"/>
    <vType id="UV" maxSpeed="10.00" vClass="passenger" guiShape="passenger/van" color="red" personCapacity="16" boardingDuration="10.00" latAlignment="right" laneChangeModel="LC2013"/>
    <vType id="valid-Bus" vClass="bus" color="blue"/>
    <vType id="valid-Car" maxSpeed="8.00" vClass="passenger" color="yellow"/>
    <vType id="valid-Jeep" vClass="passenger" color="magenta"/>
    <vType id="valid-Motor" maxSpeed="4.00" vClass="motorcycle" color="green"/>
    <!-- Routes -->
    <route id="BP_route" edges="761980615 761980617 762672808 762688381 632727188 909967551 909967551-AddedOffRampEdge 576201844 156782313 644875495-AddedOnRampEdge 644875495 644875492#1 667228839-AddedOnRampEdge 667228839 840378998 644875507#0 644875507#1 644875520 1092898261 1276265244 1276265240 22738849#0 245317928-AddedOnRampEdge 245317928 711708395 1074926268 711708392 711708392-AddedOffRampEdge 245317915#1 688086638-AddedOnRampEdge 688086638 645165804#0 369829194 245317930 245317930-AddedOffRampEdge 245317933#0 649171196 28740343 857127171 676675609 676675609-AddedOffRampEdge 650299591 4486322 613962959 2670552 2670552-AddedOffRampEdge 575288141#1 540197124#0 540197124#1 540197124#2 568975568 492209951 1074261077 568975570-AddedOnRampEdge 568975570 563743937-AddedOnRampEdge 563743937 191681722 564221897 109733602 563748264 162328085 164277298 352801326 1054315845 1054315838#0 863419980#0 665515516#1 665515518#1 533386346 665787499 665787524 532222568 109981573 -183543979 -282194769 651079976 573710407 993441705 767517245 775185678 894843877#1 -690613619 -690613617 -918082989 -690613625 -111987075 -879177025 -642893603 -872215578 871213663 1103029872 1033118917 651079971 660352590 651079972 114213935#1 -563021933" color="red"/>
    <route id="PB_route" edges="583701022 584825959 660352567 1198531265 1198531266 660352585 114213938 1033118918 1103029833 544489112 662913537#0 1103029873 870991316 879172124 872215569 879177025 111987075 111987010 879172096 690613617 690613619 870991328 624604435#0 366952449#0 642896772 -797720294 -651079992 690977719 820090516 109971518#0 109971539#0 130048909#0 665515519#0 665515517 560538906#1 813394288 813394290#0 813394289#0 1103307016#0 555020953#0 564298119#1 200093474 23959414 306636237 306636445 306636445-AddedOffRampEdge 653015388 272985473 555020929 107773896 555020925#0 555020925#1 734379942#0 734379942#1 23959380 724670137 22730660 724670138 22730634 22730634-AddedOffRampEdge 555020891 568975575#0 568975575#1 568975566 555020886 575293226#0 575293226#1 563743939#0 563743939#1-AddedOnRampEdge 563743939#1 708734828-AddedOnRampEdge 708734828 699824385 4486320 856789357 1210746304 687100199 856789358 856820281 650299588 650299586 563743949 650299587 857127169 650299590 650299590-AddedOffRampEdge 649171195 621030749#0 621030728 245238968 678960768#0 369829204#0 355084527 632555219 22738847 245317925#0 423798481 644875508 840378999 840378999-AddedOffRampEdge 667228840 644875524 775216094 576201832 665068121 791530031 576201831 111735144 918504765 111735143 931457626 709834494 324152520#2 23952759 850329037 23952832 761980619 761980615" color="red"/>
    <route id="SSI-Traffic" edges="-651079992" color="0,128,128"/>
    <route id="Valid-Blvd-Entrance" edges="109971518#0" color="0,128,128"/>
    <route id="Valid-Perps-Town" edges="690977719" color="0,128,128"/>
    <route id="Valid-SM-Traffic" edges="879172096 690613617 690613619" color="0,128,128"/>
    <route id="Valid-Traffic-Divimart" edges="130048909#0" color="0,128,128"/>
    <route id="Valid-Traffic-StDOM-Cavitex" edges="1103307016#0 555020953#0 564298119#1 200093474" color="0,128,128"/>
    <route id="jeep_route" edges="583701022 584825959 660352567 1198531265 1198531266 660352585 114213938 1033118918 1103029833 544489112 662913537#0 1103029873 870991316 879172124 872215569 879177025 111987075 111987010 879172096 690613617 690613619 870991328 624604435#0 366952449#0 642896772 -797720294 -651079992 690977719 820090516 109971518#0 109971539#0 130048909#0 665515519#0 665515517 560538906#1 813394288 813394290#0 813394289#0 1103307016#0 555020953#0 564298119#1 200093474 23959414 306636237 306636445 306636445-AddedOffRampEdge 653015388 272985474 352801326 1054315845 1054315838#0 863419980#0 665515516#1 665515518#1 533386346 665787499 665787524 532222568 109981573 -183543979 -282194769 651079976 573710407 993441705 767517245 775185678 894843877#1 -690613619 -690613617 -918082989 -690613625 -111987075 -879177025 -642893603 -872215578 871213663 1103029872 1033118917 651079971 660352590 651079972 114213935#1 -563021933"/>
    <route id="r_0" edges="583701022 584825959 660352567 628567782" color="blue"/>
    <route id="r_1" edges="583701022 584825959 660352567 1198531265 1198531266 660352585 114213938 1033118918 1103029833 544489112 662913537#0 1103029873 870991316 879172124 872215569 879177025 111987075 111987010 879172096 690613617 690613619 870991328 427551860" color="blue"/>
    <route id="r_10" edges="1123774224-AddedOffRampEdge 914977492 775216094 4270515#0" color="blue"/>
    <route id="r_11" edges="1123774224-AddedOffRampEdge 914977492 775216094 576201832 665068121 791530031 576201831 111735144 918504765 111735143 931457626 709834494 363409071 762672808 762688381 632727190 909967549" color="blue"/>
    <route id="r_12" edges="836401380" color="blue"/>
    <route id="r_13" edges="230282896 836401382 836401382-AddedOffRampEdge" color="blue"/>
    <route id="r_14" edges="22770806 761811312 761980619 761980615 761980617 762672808 762688381 632727188 909967551 909967551-AddedOffRampEdge 644875491 644875503-AddedOnRampEdge" color="blue"/>
    <route id="r_15" edges="761811311 22770806 761811312 761980619 761980615 761980617 762672808 762688381 632727190 909967549" color="blue"/>
    <route id="r_16" edges="761811311 22770806 761811312 761980619 761980615 761980617 762672808 762688381 632727188 909967551 909967551-AddedOffRampEdge 576201844 156782313 644875495-AddedOnRampEdge 644875495 644875492#1 667228839-AddedOnRampEdge 667228839 840378998 644875507#0 644875507#1 644875520 1092898261 1276265244 1276265240 22738849#0 245317928-AddedOnRampEdge 245317928 711708395 1074926268 711708392 711708392-AddedOffRampEdge 40122556" color="blue"/>
    <route id="r_17" edges="1123774224-AddedOffRampEdge 914977491 644875495-AddedOnRampEdge 644875495 644875492#1 667228839-AddedOnRampEdge 667228839 840378998 644875507#0 644875507#1 644875520 1092898261 1276265244 1276265240 22738849#0 245317928-AddedOnRampEdge 245317928 711708395 1074926268 711708392 711708392-AddedOffRampEdge 40122556" color="blue"/>
    <route id="r_18" edges="761811311 22770806 761811312 761980619 761980615 761980617 762672808 762688381 632727188 909967551 909967551-AddedOffRampEdge 576201844 156782313 644875495-AddedOnRampEdge 644875495 644875492#1 667228839-AddedOnRampEdge 667228839 840378998 644875507#0 644875507#1 644875520 1092898261 1276265244 1276265240 22738849#0 245317928-AddedOnRampEdge 245317928 711708395 1074926268 711708392 711708392-AddedOffRampEdge 245317915#1 688086638-AddedOnRampEdge 688086638 645165804#0 369829194 245317930 245317930-AddedOffRampEdge 245317933#0 649171196 28740343 857127171 676675609 676675609-AddedOffRampEdge 650299591 4486322 613962959 2670552 2670552-AddedOffRampEdge 575288141#1 540197124#0 540197124#1 540197124#2 568975568 492209951 1074261077 568975570-AddedOnRampEdge 568975570 563743937-AddedOnRampEdge 563743937 191681722 564221897 109733602 563748264 162328085 164277299 1073924569 564298157 1073924568" color="blue"/>
    <route id="r_19" edges="540197115 540197124#1 540197124#2 568975568 492209951 1074261077 568975570-AddedOnRampEdge 568975570 563743937-AddedOnRampEdge 563743937 191681722 564221897 109733602 563748264 162328085 164277298 352801326 1054315845 1054315838#0 863419980#0 904684597" color="blue"/>
    <route id="r_2" edges="583701022 584825959 660352567 1198531265 1198531266 660352585 114213938 1033118918 1103029833 544489112 662913537#0 1103029873 870991316 879172124 872215569 879177025 111987075 111987010 879172096 690613617 690613619 870991328 624604435#0 366952449#0 642896772 -797720294 -651079992 690977719 820090516" color="blue"/>
    <route id="r_20" edges="417445357 665515518#1 533386346 665787499 665787524 532222568 109981573 -183543979 -282194769 651079976 573710407 993441705 651079990 158466192#0" color="blue"/>
    <route id="r_21" edges="870991315 872215569 879177025 111987075 111987010 879172096 690613617 690613619 870991328 427551860" color="blue"/>
    <route id="r_22" edges="1157435280 114213935#1 -563021933" color="blue"/>
    <route id="r_23" edges="22770806 761811312 761980619 761980615 761980617 762672808 762688381 632727188 909967551 909967551-AddedOffRampEdge 576201844 156782313 644875495-AddedOnRampEdge 644875495 644875492#1 667228839-AddedOnRampEdge 667228839 840378998 644875507#0 644875507#1 644875520 1092898261 1276265244 1276265240 22738849#0 245317928-AddedOnRampEdge 245317928 711708395 1074926268 711708392 711708392-AddedOffRampEdge 245317915#1 688086638-AddedOnRampEdge 688086638 645165804#0 369829194 245317930 245317930-AddedOffRampEdge 245317933#0 649171196 28740343 857127171 676675609 676675609-AddedOffRampEdge 650299591 4486322 613962959 2670552 2670552-AddedOffRampEdge 575288141#1 540197124#0 540197124#1 540197124#2 568975568 492209951 1074261077 568975570-AddedOnRampEdge 568975570 563743937-AddedOnRampEdge 563743937 191681722 564221897 109733602 563748264 162328085 164277298 352801326 1054315845 1054315838#0 863419980#0 665515516#1 665515518#1 533386346 665787499 665787524 532222568 109981573 -183543979 -282194769 651079976 573710407 993441705 767517245 775185678 894843877#1 -690613619 -690613617 -918082989 -690613625 -111987075 -879177025 -642893603 -872215578 871213663 1103029872 1033118917 651079971 660352590 1157435279" color="blue"/>
    <route id="r_24" edges="1123774224-AddedOffRampEdge 914977491 644875495-AddedOnRampEdge 644875495 644875492#1 667228839-AddedOnRampEdge 667228839 840378998 644875507#0 644875507#1 644875520 1076611437#0" color="blue"/>
    <route id="r_25" edges="109736541 555020918 114689782 162328085 164277298 352801326 1054315845 1054315838#0 863419980#0 904684597" color="blue"/>
    <route id="r_26" edges="417445357 665515518#1 533386346 665787499 665787524 532222568 109981573 -183543979 -282194769 651079976 573710407 993441705 767517245 775185678 894843877#1 -690613619 -690613617 -918082989 -690613625 -111987075 -879177025 -642893603 -872215578 871213663 1103029872 1033118917 651079971 660352590 651079972 114213935#1 -563021933" color="blue"/>
    <route id="r_27" edges="761811311 22770806 761811312 761980619 761980615 761980617 762672808 762688381 632727188 909967551 909967551-AddedOffRampEdge 576201844 156782313 644875495-AddedOnRampEdge 644875495 644875492#1 667228839-AddedOnRampEdge 667228839 840378998 644875507#0 644875507#1 644875520 1092898261 1276265244 1276265240 22738849#0 245317928-AddedOnRampEdge 245317928 711708395 1074926268 711708392 711708392-AddedOffRampEdge 245317915#1 688086638-AddedOnRampEdge 688086638 645165804#0 369829194 245317930 245317930-AddedOffRampEdge 245317933#0 649171196 28740343 857127171 676675609 676675609-AddedOffRampEdge 650299591 4486322 613962959 2670552 2670552-AddedOffRampEdge 575288141#1 540197124#0 540197124#1 540197124#2 568975568 492209951 1074261077 568975570-AddedOnRampEdge 568975570 563743937-AddedOnRampEdge 563743937 245317910 164850584 555020900" color="blue"/>
    <route id="r_28" edges="109736541 555020918 114689782 162328085 164277298 352801326 1054315845 1054315838#0 863419980#0 665515516#1 665515518#1 533386346 665787499 665787524 532222568 109981573 -183543979 -282194769 651079976 573710407 993441705 651079990 158466192#0" color="blue"/>
    <route id="r_29" edges="109736541 555020918 114689782 162328085 164277298 352801326 1054315845 1054315838#0 863419980#0 665515516#1 665515518#1 533386346 665787499 665787524 532222568 109981573 -183543979 -282194769 651079976 573710407 993441705 767517245 775185678 894843877#1 -690613619 -690613617 -918082989 -690613625 -111987075 -879177025 -642893603 -872215578 871213663 1103029872 1033118917 651079971 660352590 651079972 114213935#1 -563021933" color="blue"/>
    <route id="r_3" edges="583701022 584825959 660352567 1198531265 1198531266 660352585 114213938 1033118918 1103029833 544489112 662913537#0 1103029873 870991316 879172124 872215569 879177025 111987075 111987010 879172096 690613617 690613619 870991328 624604435#0 366952449#0 642896772 -797720294 -651079992 690977719 820090516 109971518#0 109971539#0 130048909#0 863419978" color="blue"/>
    <route id="r_30" edges="583701022 584825959 660352567 1198531265 1198531266 660352585 114213938 1033118918 1103029833 544489112 662913537#0 1103029873 870991314" color="blue"/>
    <route id="r_4" edges="583701022 584825959 660352567 1198531265 1198531266 660352585 114213938 1033118918 1103029833 544489112 662913537#0 1103029873 870991316 879172124 872215569 879177025 111987075 111987010 879172096 690613617 690613619 870991328 624604435#0 366952449#0 642896772 -797720294 -651079992 690977719 820090516 109971518#0 109971539#0 130048909#0 665515519#0 665515517 560538906#1 813394288 669869476" color="blue"/>
    <route id="r_5" edges="669869476.66 813394289#0 1103307016#0 555020953#0 564298119#1 200093474 23959414 306636237 306636445 306636445-AddedOffRampEdge 109971191 1073924568" color="blue"/>
    <route id="r_6" edges="669869476.66 813394289#0 1103307016#0 555020953#0 564298119#1 200093474 23959414 306636237 306636445 306636445-AddedOffRampEdge 653015388 272985473 555020929 107773896 555020925#0 555020925#1 734379942#0 734379942#1 23959380 724670137 22730660 724670138 22730634 22730634-AddedOffRampEdge 555020891 568975575#0 568975575#1 864803042 825762517 864803055 864803045-AddedOnRampEdge" color="blue"/>
    <route id="r_7" edges="575288143 568975575#1 568975566 555020886 575293226#0 575293226#1 563743939#0 563743939#1-AddedOnRampEdge 563743939#1 708734828-AddedOnRampEdge 708734828 699824385 4486320 856789357 1210746304 687100199 856789358 856820281 650299588 650299586 563743949 650299587 857127169 650299590 650299590-AddedOffRampEdge 456482268 456482267-AddedOnRampEdge 456482267 456482267-AddedOffRampEdge 667607234#0" color="blue"/>
    <route id="r_8" edges="583701022 584825959 660352567 1198531265 1198531266 660352585 114213938 1033118918 1103029833 544489112 662913537#0 1103029873 870991316 879172124 872215569 879177025 111987075 111987010 879172096 690613617 690613619 870991328 624604435#0 366952449#0 642896772 -797720294 -651079992 690977719 820090516 109971518#0 109971539#0 130048909#0 665515519#0 665515517 560538906#1 813394288 813394290#0 813394289#0 1103307016#0 555020953#0 564298119#1 200093474 23959414 306636237 306636445 306636445-AddedOffRampEdge 653015388 272985473 555020929 107773896 555020925#0 555020925#1 734379942#0 734379942#1 23959380 724670137 22730660 724670138 22730634 22730634-AddedOffRampEdge 555020891 568975575#0 568975575#1 568975566 555020886 575293226#0 575293226#1 563743939#0 563743939#1-AddedOnRampEdge 563743939#1 708734828-AddedOnRampEdge 708734828 699824385 4486320 856789357 1210746304 687100199 856789358 856820281 650299588 650299586 563743949 650299587 857127169 650299590 650299590-AddedOffRampEdge 649171195 621030749#0 621030728 245238968 678960768#0 369829204#0 355084527 632555219 22738847 245317925#0 423798481 644875508 840378999 840378999-AddedOffRampEdge 667228840 644875524 775216094 576201832 665068121 791530031 576201831 111735144 918504765 111735143 931457626 709834494 324152520#2 1124732197 230520303 844731941"/>
    <route id="r_9" edges="632555185 632555219 22738847 245317925#0 423798481 644875508 840378999 840378999-AddedOffRampEdge 667228840 644875524 78627391 644875503-AddedOnRampEdge" color="blue"/>
    <route id="round_trip" edges="583701022 584825959 660352567 1198531265 1198531266 660352585 114213938 1033118918 1103029833 544489112 662913537#0 1103029873 870991316 879172124 872215569 879177025 111987075 111987010 879172096 690613617 690613619 870991328 624604435#0 366952449#0 642896772 -797720294 -651079992 690977719 820090516 109971518#0 109971539#0 130048909#0 665515519#0 665515517 560538906#1 813394288 813394290#0 813394289#0 1103307016#0 555020953#0 564298119#1 200093474 23959414 306636237 306636445 306636445-AddedOffRampEdge 653015388 272985473 555020929 107773896 555020925#0 555020925#1 734379942#0 734379942#1 23959380 724670137 22730660 724670138 22730634 22730634-AddedOffRampEdge 555020891 568975575#0 568975575#1 568975566 555020886 575293226#0 575293226#1 563743939#0 563743939#1-AddedOnRampEdge 563743939#1 708734828-AddedOnRampEdge 708734828 699824385 4486320 856789357 1210746304 687100199 856789358 856820281 650299588 650299586 563743949 650299587 857127169 650299590 650299590-AddedOffRampEdge 649171195 621030749#0 621030728 245238968 678960768#0 369829204#0 355084527 632555219 22738847 245317925#0 423798481 644875508 840378999 840378999-AddedOffRampEdge 667228840 644875524 775216094 576201832 665068121 791530031 576201831 111735144 918504765 111735143 931457626 709834494 324152520#2 23952759 850329037 23952832 761980619 761980615 761980617 762672808 762688381 632727188 909967551 909967551-AddedOffRampEdge 576201844 156782313 644875495-AddedOnRampEdge 644875495 644875492#1 667228839-AddedOnRampEdge 667228839 840378998 644875507#0 644875507#1 644875520 1092898261 1276265244 1276265240 22738849#0 245317928-AddedOnRampEdge 245317928 711708395 1074926268 711708392 711708392-AddedOffRampEdge 245317915#1 688086638-AddedOnRampEdge 688086638 645165804#0 369829194 245317930 245317930-AddedOffRampEdge 245317933#0 649171196 28740343 857127171 676675609 676675609-AddedOffRampEdge 650299591 4486322 613962959 2670552 2670552-AddedOffRampEdge 575288141#1 540197124#0 540197124#1 540197124#2 568975568 492209951 1074261077 568975570-AddedOnRampEdge 568975570 563743937-AddedOnRampEdge 563743937 191681722 564221897 109733602 563748264 162328085 164277298 352801326 1054315845 1054315838#0 863419980#0 665515516#1 665515518#1 533386346 665787499 665787524 532222568 109981573 -183543979 -282194769 651079976 573710407 993441705 767517245 775185678 894843877#1 -690613619 -690613617 -918082989 -690613625 -111987075 -879177025 -642893603 -872215578 871213663 1103029872 1033118917 651079971 660352590 651079972 114213935#1 -563021933" color="magenta"/>
    <route id="valid-before-ssi" edges="-797720294" color="0,128,128"/>
    <route id="valid_avida" edges="1103029873 870991314" color="0,128,128"/>
    <route id="valid_cavitex_baclaran" edges="555020918 734379340 23959380 724670137 22730660 724670138 22730634 22730634-AddedOffRampEdge 555020891 568975575#0 568975575#1 568975566 555020886 575293226#0 575293226#1 563743939#0 563743939#1-AddedOnRampEdge 563743939#1 708734828-AddedOnRampEdge 708734828 699824385 4486320 856789357 1210746304 687100199 856789358 856820281 650299588 650299586 563743949 650299587 857127169 650299590 650299590-AddedOffRampEdge 649171195 621030749#0 621030728 245238968 678960768#0 369829204#0 355084527 632555219 22738847 245317925#0 423798481 644875508 840378999 840378999-AddedOffRampEdge 667228840 644875524 775216094 576201832 665068121 791530031 576201831 111735144 918504765 111735143 931457626 709834494 324152520#2 1124732197 230520303 844731941"/>
    <!-- Vehicles, persons and containers (sorted by depart) -->
    <person id="p_1" depart="0.00">
        <walk from="1103029833" busStop="bs_21"/>
        <ride busStop="bs_46" lines="UV"/>
    </person>
    <person id="p_10" depart="0.00">
        <walk from="820090516" busStop="bs_36"/>
        <ride busStop="bs_48" lines="UV"/>
    </person>
    <person id="p_11" depart="0.00">
        <walk from="820090516" busStop="bs_36"/>
        <ride busStop="bs_48" lines="UV"/>
    </person>
    <person id="p_12" depart="0.00">
        <walk from="109971518#0" busStop="bs_37"/>
        <ride busStop="bs_51" lines="UV"/>
    </person>
    <person id="p_13" depart="0.00">
        <walk from="109971518#0" busStop="bs_39"/>
        <ride busStop="bs_46" lines="UV"/>
    </person>
    <person id="p_14" depart="0.00">
        <walk from="109971518#0" busStop="bs_39"/>
        <ride busStop="bs_46" lines="UV"/>
    </person>
    <person id="p_15" depart="0.00">
        <walk from="560538906#1" busStop="bs_42"/>
        <ride busStop="bs_48" lines="UV"/>
    </person>
    <person id="p_16" depart="0.00">
        <walk from="560538906#1" busStop="bs_42"/>
        <ride busStop="bs_48" lines="UV"/>
    </person>
    <person id="p_2" depart="0.00">
        <walk from="1103029833" busStop="bs_22"/>
        <ride busStop="bs_46" lines="UV"/>
    </person>
    <person id="p_3" depart="0.00">
        <walk from="1103029833" busStop="bs_22"/>
        <ride busStop="bs_46" lines="UV"/>
    </person>
    <person id="p_4" depart="0.00">
        <walk from="1103029873" busStop="bs_24"/>
        <ride busStop="bs_48" lines="UV"/>
    </person>
    <person id="p_5" depart="0.00">
        <walk from="-797720294" busStop="bs_30"/>
        <ride busStop="bs_51" lines="UV"/>
    </person>
    <person id="p_6" depart="0.00">
        <walk from="-797720294" busStop="bs_30"/>
        <ride busStop="bs_51" lines="UV"/>
    </person>
    <person id="p_7" depart="0.00">
        <walk from="690977719" busStop="bs_33"/>
        <ride busStop="bs_46" lines="UV"/>
    </person>
    <person id="p_8" depart="0.00">
        <walk from="690977719" busStop="bs_35"/>
        <ride busStop="bs_51" lines="UV"/>
    </person>
    <person id="p_9" depart="0.00">
        <walk from="690977719" busStop="bs_35"/>
        <ride busStop="bs_51" lines="UV"/>
    </person>
    <person id="random_1" depart="0.00" color="yellow">
        <walk from="1103029833" busStop="bs_20"/>
    </person>
    <person id="random_2" depart="0.00" color="yellow">
        <walk from="872215569" busStop="bs_25"/>
    </person>
    <person id="random_3" depart="0.00" color="yellow">
        <walk from="879177025" busStop="bs_26"/>
    </person>
    <flow id="Avida-Flow" type="valid-Motor" begin="530.00" route="valid_avida" end="545.00" number="10"/>
    <flow id="SM-Flow" type="valid-Car" begin="828.00" route="Valid-SM-Traffic" end="830.00" number="10"/>
    <flow id="Before-SSI-Flow" type="valid-Car" begin="922.00" route="valid-before-ssi" end="928.00" number="1"/>
    <flow id="SSI-Flow" type="valid-Car" begin="1020.00" route="SSI-Traffic" end="1028.00" number="10"/>
    <flow id="Perps-Town-Flow" type="valid-Car" begin="1056.00" route="Valid-Perps-Town" end="3600.00" number="1"/>
    <flow id="Blvd-Entrance-Flow" type="valid-Car" begin="1375.00" route="Valid-Blvd-Entrance" end="3600.00" number="1"/>
    <flow id="Blvd-Entrance-Flow-Motor" type="valid-Motor" begin="1375.00" route="Valid-Blvd-Entrance" end="3600.00" number="1"/>
    <flow id="Traffic-Divimart-Flow" type="valid-Car" begin="1675.00" route="Valid-Traffic-Divimart" end="1700.00" number="10"/>
    <flow id="Traffic-StDOM-Cavitex-Flow" type="valid-Car" begin="1988.00" route="Valid-Traffic-StDOM-Cavitex" end="2100.00" number="20"/>
</routes>
