<?xml version="1.0" encoding="UTF-8"?>

<routes xmlns:xsi="http://www.w3.org/2001/XMLSchema-instance" xsi:noNamespaceSchemaLocation="http://sumo.dlr.de/xsd/routes_file.xsd">

<!-- Random sa Elorde -->

<person id= "random_1" depart = "0" color="1,1,0">
    <walk from="1103029833" busStop="bs_20" duration="1" />
    <stop duration="60"/>
</person>

<!-- Passenger sa Mcdo Salawag -->
<person id= "p_1" depart = "0">
    <walk from="1103029833" busStop="bs_21" duration="1" />
    <ride from="1103029833" busStop="bs_46" lines= "UV"/>
</person>

<!-- Passenger sa Before mag Salawag-->

<person id= "p_2" depart = "0">
    <walk from="1103029833" busStop="bs_22" duration="1" />
    <ride from="1103029833" busStop="bs_46" lines= "UV"/>
</person>

<person id= "p_3" depart = "0">
    <walk from="1103029833" busStop="bs_22" duration="1" />
    <ride from="1103029833" busStop="bs_46" lines= "UV"/>
</person>

<!-- Passenger sa Avida Settings-->

<person id= "p_4" depart = "0">
    <walk from="1103029873" busStop="bs_24" duration="1" />
    <ride from="1103029873" busStop="bs_48" lines= "UV"/>
</person>

<!-- Random People in Bellfort-->
<person id= "random_2" depart = "0" color="1,1,0">
    <walk from="872215569" busStop="bs_25" duration="1" />
    <stop duration="60"/>
</person>
<!-- Random sa Maryhomes -->

<person id= "random_3" depart = "0" color="1,1,0">
    <walk from="879177025" busStop="bs_26" duration="1" />
    <stop duration="60"/>
</person>

<!-- Passenger sa SM -->

<person id= "p_5" depart = "0">
    <walk from="-797720294" busStop="bs_30" duration="1" />
    <ride from="-797720294" busStop="bs_51" lines= "UV"/>
</person>

<person id= "p_6" depart = "0">
    <walk from="-797720294" busStop="bs_30" duration="1" />
    <ride from="-797720294" busStop="bs_51" lines= "UV"/>
</person>

<!-- Passenger sa PagAsa -->

<person id= "p_7" depart = "0">
    <walk from="690977719" busStop="bs_33" duration="1" />
    <ride from="690977719" busStop="bs_46" lines= "UV"/>
</person>

<!-- Passenger sa Town and Country -->

<person id= "p_8" depart = "0">
    <walk from="690977719" busStop="bs_35" duration="1" />
    <ride from="690977719" busStop="bs_51" lines= "UV"/>
</person>

<person id= "p_9" depart = "0">
    <walk from="690977719" busStop="bs_35" duration="1" />
    <ride from="690977719" busStop="bs_51" lines= "UV"/>
</person>

<!-- Passenger sa Jollibee Molino -->

<person id= "p_10" depart = "0">
    <walk from="820090516" busStop="bs_36" duration="1" />
    <ride from="820090516" busStop="bs_48" lines= "UV"/>
</person>

<person id= "p_11" depart = "0">
    <walk from="820090516" busStop="bs_36" duration="1" />
    <ride from="820090516" busStop="bs_48" lines= "UV"/>
</person>

<!-- Passenger sa Super 8 -->

<person id= "p_12" depart = "0">
    <walk from="109971518#0" busStop="bs_37" duration="1" />
    <ride from="109971518#0" busStop="bs_51" lines= "UV"/>
</person>

<!-- Passenger sa Addas -->

<person id= "p_13" depart = "0">
    <walk from="109971518#0" busStop="bs_39" duration="1" />
    <ride from="109971518#0" busStop="bs_46" lines= "UV"/>
</person>

<person id= "p_14" depart = "0">
    <walk from="109971518#0" busStop="bs_39" duration="1" />
    <ride from="109971518#0" busStop="bs_46" lines= "UV"/>
</person>

<!-- Passenger sa Divimart (Last Pickup)-->

<person id= "p_15" depart = "0">
    <walk from="560538906#1" busStop="bs_42" duration="1" />
    <ride from="560538906#1" busStop="bs_48" lines= "UV"/>
</person>

<person id= "p_16" depart = "0">
    <walk from="560538906#1" busStop="bs_42" duration="1" />
    <ride from="560538906#1" busStop="bs_48" lines= "UV"/>
</person>

<!-- Drop Off sa Divimart-->

<person id= "south_p_1" depart = "0">
    <walk from="761980615" busStop="bs_51" duration="1" />
    <ride from="761980615" busStop="bs_53" lines= "UV"/>
</person>

<person id= "south_p_2" depart = "0">
    <walk from="761980615" busStop="bs_51" duration="1" />
    <ride from="761980615" busStop="bs_53" lines= "UV"/>
</person>

<person id= "south_p_3" depart = "0">
    <walk from="761980615" busStop="bs_51" duration="1" />
    <ride from="761980615" busStop="bs_53" lines= "UV"/>
</person>

<!-- Drop Off sa Super 8-->

<person id= "south_p_4" depart = "0">
    <walk from="761980615" busStop="bs_51" duration="1" />
    <ride from="761980615" busStop="bs_58" lines= "UV"/>
</person>

<person id= "south_p_5" depart = "0">
    <walk from="761980615" busStop="bs_51" duration="1" />
    <ride from="761980615" busStop="bs_58" lines= "UV"/>
</person>

<!-- Drop Off sa Town-->

<person id= "south_p_6" depart = "0">
    <walk from="761980615" busStop="bs_51" duration="1" />
    <ride from="761980615" busStop="bs_62" lines= "UV"/>
</person>

<person id= "south_p_7" depart = "0">
    <walk from="761980615" busStop="bs_51" duration="1" />
    <ride from="761980615" busStop="bs_62" lines= "UV"/>
</person>

<!-- Drop Off sa Avida-->

<person id= "south_p_8" depart = "0">
    <walk from="761980615" busStop="bs_51" duration="1" />
    <ride from="761980615" busStop="bs_71" lines= "UV"/>
</person>

<person id= "south_p_9" depart = "0">
    <walk from="761980615" busStop="bs_51" duration="1" />
    <ride from="761980615" busStop="bs_71" lines= "UV"/>
</person>

<!-- Drop Off sa District-->

<person id= "south_p_10" depart = "0">
    <walk from="761980615" busStop="bs_51" duration="1" />
    <ride from="761980615" busStop="bs_72" lines= "UV"/>
</person>

<person id= "south_p_11" depart = "0">
    <walk from="761980615" busStop="bs_51" duration="1" />
    <ride from="761980615" busStop="bs_72" lines= "UV"/>
</person>

<!-- Drop Off sa San Marino-->

<person id= "south_p_12" depart = "0">
    <walk from="761980615" busStop="bs_51" duration="1" />
    <ride from="761980615" busStop="bs_93" lines= "UV"/>
</person>

<person id= "south_p_13" depart = "0">
    <walk from="761980615" busStop="bs_51" duration="1" />
    <ride from="761980615" busStop="bs_93" lines= "UV"/>
</person>

<!-- Last Drop Off -->

<person id= "south_p_14" depart = "0">
    <walk from="761980615" busStop="bs_51" duration="1" />
    <ride from="761980615" busStop="bs_95" lines= "UV"/>
</person>

<person id= "south_p_15" depart = "0">
    <walk from="761980615" busStop="bs_51" duration="1" />
    <ride from="761980615" busStop="bs_95" lines= "UV"/>
</person>

<person id= "south_p_16" depart = "0">
    <walk from="761980615" busStop="bs_51" duration="1" />
    <ride from="761980615" busStop="bs_95" lines= "UV"/>
</person>

<!-- Passenger Notes:
1. Drop off sa Lydias Lechon 
2. Drop off sa Heritage
3. Drop off sa Terminal -->

</routes>