<?xml version="1.0" encoding="UTF-8"?>

<!-- generated on 2024-03-25 15:59:14.032658 by osmWebWizard.py v1_19_0+0000-baa66a0f364
<configuration>
    <net-file value="C:\Users\Gabe Piano\Sumo\2024-03-25-15-59-08\osm.net.xml.gz"/>
    <output-trip-file value="C:\Users\Gabe Piano\Sumo\2024-03-25-15-59-08\osm.passenger.trips.xml"/>
    <route-file value="C:\Users\Gabe Piano\Sumo\2024-03-25-15-59-08\osm.passenger.rou.xml"/>
    <prefix value="veh"/>
    <trip-attributes value="departLane=&quot;best&quot;"/>
    <fringe-start-attributes value="departSpeed=&quot;max&quot;"/>
    <vehicle-class value="passenger"/>
    <lanes value="True"/>
    <fringe-factor value="5"/>
    <allow-fringe.min-length value="1000.0"/>
    <via-edge-types value="highway.motorway,highway.motorway_link,highway.trunk_link,highway.primary_link,highway.secondary_link,highway.tertiary_link"/>
    <min-distance value="300.0"/>
    <min-distance.fringe value="10.0"/>
    <remove-loops value="True"/>
    <validate value="True"/>
    <insertion-density value="12.0"/>
</configuration>
-->

<!-- generated on 2024-03-25 15:59:13 by Eclipse SUMO duarouter Version 1.19.0
<configuration xmlns:xsi="http://www.w3.org/2001/XMLSchema-instance" xsi:noNamespaceSchemaLocation="http://sumo.dlr.de/xsd/duarouterConfiguration.xsd">

    <input>
        <net-file value="C:\Users\Gabe Piano\Sumo\2024-03-25-15-59-08\osm.net.xml.gz"/>
        <route-files value="C:\Users\Gabe Piano\Sumo\2024-03-25-15-59-08\osm.passenger.trips.xml"/>
    </input>

    <output>
        <output-file value="C:\Users\Gabe Piano\Sumo\2024-03-25-15-59-08\osm.passenger.trips.xml.tmp"/>
        <alternatives-output value="NUL"/>
        <write-trips value="true"/>
    </output>

    <processing>
        <remove-loops value="true"/>
    </processing>

    <time>
        <begin value="0.0"/>
        <end value="3600.0"/>
    </time>

    <report>
        <no-warnings value="true"/>
        <ignore-errors value="true"/>
        <no-step-log value="true"/>
    </report>

</configuration>
-->

<routes xmlns:xsi="http://www.w3.org/2001/XMLSchema-instance" xsi:noNamespaceSchemaLocation="http://sumo.dlr.de/xsd/routes_file.xsd">
    <vType id="veh_passenger" vClass="passenger"/>
    <trip id="veh1" type="veh_passenger" depart="14.26" departLane="best" departSpeed="max" from="1074261077" to="563743937"/>
    <trip id="veh2" type="veh_passenger" depart="28.53" departLane="best" departSpeed="max" from="724670137" to="568975575#1"/>
    <trip id="veh3" type="veh_passenger" depart="42.79" departLane="best" departSpeed="max" from="437148783" to="362004534"/>
    <trip id="veh4" type="veh_passenger" depart="57.05" departLane="best" departSpeed="max" from="1074261077" to="563743937"/>
    <trip id="veh5" type="veh_passenger" depart="71.32" departLane="best" departSpeed="max" from="724670137" to="362004534"/>
    <trip id="veh6" type="veh_passenger" depart="85.58" departLane="best" departSpeed="max" from="724670137" to="568975575#1"/>
    <trip id="veh8" type="veh_passenger" depart="114.10" departLane="best" departSpeed="max" from="724670137" to="568975567"/>
    <trip id="veh9" type="veh_passenger" depart="128.37" departLane="best" departSpeed="max" from="1074261077" to="563743937"/>
    <trip id="veh10" type="veh_passenger" depart="142.63" departLane="best" departSpeed="max" from="724670137" to="568975567"/>
    <trip id="veh11" type="veh_passenger" depart="156.89" departLane="best" departSpeed="max" from="724670137" to="568975575#1"/>
    <trip id="veh12" type="veh_passenger" depart="171.16" departLane="best" departSpeed="max" from="437148783" to="568975567"/>
    <trip id="veh13" type="veh_passenger" depart="185.42" departLane="best" departSpeed="max" from="724670137" to="568975567"/>
    <trip id="veh14" type="veh_passenger" depart="199.68" departLane="best" departSpeed="max" from="724670137" to="568975567"/>
    <trip id="veh15" type="veh_passenger" depart="213.95" departLane="best" departSpeed="max" from="1074261077" to="563743937"/>
    <trip id="veh17" type="veh_passenger" depart="242.47" departLane="best" departSpeed="max" from="724670137" to="568975575#1"/>
    <trip id="veh18" type="veh_passenger" depart="256.73" departLane="best" departSpeed="max" from="724670137" to="568975575#1"/>
    <trip id="veh20" type="veh_passenger" depart="285.26" departLane="best" departSpeed="max" from="724670137" to="568975567"/>
    <trip id="veh21" type="veh_passenger" depart="299.52" departLane="best" departSpeed="max" from="724670137" to="568975567"/>
    <trip id="veh22" type="veh_passenger" depart="313.79" departLane="best" departSpeed="max" from="1074261077" to="563743937"/>
    <trip id="veh23" type="veh_passenger" depart="328.05" departLane="best" departSpeed="max" from="568975569" to="563743937"/>
    <trip id="veh25" type="veh_passenger" depart="356.58" departLane="best" departSpeed="max" from="724670137" to="568975567"/>
    <trip id="veh27" type="veh_passenger" depart="385.10" departLane="best" departSpeed="max" from="724670137" to="568975567"/>
    <trip id="veh28" type="veh_passenger" depart="399.36" departLane="best" departSpeed="max" from="724670137" to="568975567"/>
    <trip id="veh29" type="veh_passenger" depart="413.63" departLane="best" departSpeed="max" from="724670137" to="568975575#1"/>
    <trip id="veh30" type="veh_passenger" depart="427.89" departLane="best" departSpeed="max" from="437148783" to="568975575#1"/>
    <trip id="veh31" type="veh_passenger" depart="442.15" departLane="best" departSpeed="max" from="724670137" to="568975567"/>
    <trip id="veh32" type="veh_passenger" depart="456.42" departLane="best" departSpeed="max" from="568975569" to="563743937"/>
    <trip id="veh33" type="veh_passenger" depart="470.68" departLane="best" departSpeed="max" from="724670137" to="568975575#1"/>
    <trip id="veh34" type="veh_passenger" depart="484.94" departLane="best" departSpeed="max" from="568975569" to="563743937"/>
    <trip id="veh35" type="veh_passenger" depart="499.21" departLane="best" departSpeed="max" from="724670137" to="568975567"/>
    <trip id="veh36" type="veh_passenger" depart="513.47" departLane="best" departSpeed="max" from="724670137" to="568975567"/>
    <trip id="veh37" type="veh_passenger" depart="527.73" departLane="best" departSpeed="max" from="724670137" to="568975575#1"/>
    <trip id="veh38" type="veh_passenger" depart="541.99" departLane="best" departSpeed="max" from="1074261077" to="563743937"/>
    <trip id="veh39" type="veh_passenger" depart="556.26" departLane="best" departSpeed="max" from="724670137" to="568975575#1"/>
    <trip id="veh41" type="veh_passenger" depart="584.78" departLane="best" departSpeed="max" from="724670137" to="568975575#1"/>
    <trip id="veh42" type="veh_passenger" depart="599.05" departLane="best" departSpeed="max" from="437148783" to="568975567"/>
    <trip id="veh43" type="veh_passenger" depart="613.31" departLane="best" departSpeed="max" from="1074261077" to="563743937"/>
    <trip id="veh44" type="veh_passenger" depart="627.57" departLane="best" departSpeed="max" from="437148783" to="568975567"/>
    <trip id="veh45" type="veh_passenger" depart="641.84" departLane="best" departSpeed="max" from="1074261077" to="563743937"/>
    <trip id="veh46" type="veh_passenger" depart="656.10" departLane="best" departSpeed="max" from="1074261077" to="563743937"/>
    <trip id="veh47" type="veh_passenger" depart="670.36" departLane="best" departSpeed="max" from="724670137" to="568975567"/>
    <trip id="veh48" type="veh_passenger" depart="684.62" departLane="best" departSpeed="max" from="437148783" to="568975567"/>
    <trip id="veh49" type="veh_passenger" depart="698.89" departLane="best" departSpeed="max" from="437148783" to="568975567"/>
    <trip id="veh50" type="veh_passenger" depart="713.15" departLane="best" departSpeed="max" from="437148783" to="568975567"/>
    <trip id="veh51" type="veh_passenger" depart="727.41" departLane="best" departSpeed="max" from="437148783" to="568975575#1"/>
    <trip id="veh53" type="veh_passenger" depart="755.94" departLane="best" departSpeed="max" from="724670137" to="568975575#1"/>
    <trip id="veh54" type="veh_passenger" depart="770.20" departLane="best" departSpeed="max" from="724670137" to="568975575#1"/>
    <trip id="veh55" type="veh_passenger" depart="784.47" departLane="best" departSpeed="max" from="568975569" to="563743937"/>
    <trip id="veh57" type="veh_passenger" depart="812.99" departLane="best" departSpeed="max" from="437148783" to="568975575#1"/>
    <trip id="veh58" type="veh_passenger" depart="827.25" departLane="best" departSpeed="max" from="437148783" to="568975567"/>
    <trip id="veh59" type="veh_passenger" depart="841.52" departLane="best" departSpeed="max" from="724670137" to="568975575#1"/>
    <trip id="veh60" type="veh_passenger" depart="855.78" departLane="best" departSpeed="max" from="724670137" to="568975567"/>
    <trip id="veh61" type="veh_passenger" depart="870.04" departLane="best" departSpeed="max" from="1074261077" to="563743937"/>
    <trip id="veh62" type="veh_passenger" depart="884.31" departLane="best" departSpeed="max" from="1074261077" to="563743937"/>
    <trip id="veh63" type="veh_passenger" depart="898.57" departLane="best" departSpeed="max" from="437148783" to="568975567"/>
    <trip id="veh64" type="veh_passenger" depart="912.83" departLane="best" departSpeed="max" from="724670137" to="568975575#1"/>
    <trip id="veh65" type="veh_passenger" depart="927.10" departLane="best" departSpeed="max" from="1074261077" to="563743937"/>
    <trip id="veh66" type="veh_passenger" depart="941.36" departLane="best" departSpeed="max" from="724670137" to="568975575#1"/>
    <trip id="veh68" type="veh_passenger" depart="969.89" departLane="best" departSpeed="max" from="724670137" to="568975575#1"/>
    <trip id="veh70" type="veh_passenger" depart="998.41" departLane="best" departSpeed="max" from="724670137" to="568975567"/>
    <trip id="veh71" type="veh_passenger" depart="1012.67" departLane="best" departSpeed="max" from="1074261077" to="563743937"/>
    <trip id="veh73" type="veh_passenger" depart="1041.20" departLane="best" departSpeed="max" from="437148783" to="568975567"/>
    <trip id="veh74" type="veh_passenger" depart="1055.46" departLane="best" departSpeed="max" from="568975569" to="563743937"/>
    <trip id="veh75" type="veh_passenger" depart="1069.73" departLane="best" departSpeed="max" from="724670137" to="568975567"/>
    <trip id="veh76" type="veh_passenger" depart="1083.99" departLane="best" departSpeed="max" from="437148783" to="362004534"/>
    <trip id="veh77" type="veh_passenger" depart="1098.25" departLane="best" departSpeed="max" from="724670137" to="568975567"/>
    <trip id="veh78" type="veh_passenger" depart="1112.52" departLane="best" departSpeed="max" from="724670137" to="568975567"/>
    <trip id="veh79" type="veh_passenger" depart="1126.78" departLane="best" departSpeed="max" from="1074261077" to="563743937"/>
    <trip id="veh80" type="veh_passenger" depart="1141.04" departLane="best" departSpeed="max" from="724670137" to="568975575#1"/>
    <trip id="veh81" type="veh_passenger" depart="1155.30" departLane="best" departSpeed="max" from="1074261077" to="563743937"/>
    <trip id="veh82" type="veh_passenger" depart="1169.57" departLane="best" departSpeed="max" from="724670137" to="568975575#1"/>
    <trip id="veh83" type="veh_passenger" depart="1183.83" departLane="best" departSpeed="max" from="437148783" to="568975567"/>
    <trip id="veh84" type="veh_passenger" depart="1198.09" departLane="best" departSpeed="max" from="724670137" to="568975575#1"/>
    <trip id="veh85" type="veh_passenger" depart="1212.36" departLane="best" departSpeed="max" from="724670137" to="568975575#1"/>
    <trip id="veh86" type="veh_passenger" depart="1226.62" departLane="best" departSpeed="max" from="724670137" to="568975575#1"/>
    <trip id="veh87" type="veh_passenger" depart="1240.88" departLane="best" departSpeed="max" from="724670137" to="568975567"/>
    <trip id="veh88" type="veh_passenger" depart="1255.15" departLane="best" departSpeed="max" from="724670137" to="568975575#1"/>
    <trip id="veh89" type="veh_passenger" depart="1269.41" departLane="best" departSpeed="max" from="437148783" to="568975567"/>
    <trip id="veh90" type="veh_passenger" depart="1283.67" departLane="best" departSpeed="max" from="1074261077" to="563743937"/>
    <trip id="veh91" type="veh_passenger" depart="1297.93" departLane="best" departSpeed="max" from="724670137" to="568975567"/>
    <trip id="veh92" type="veh_passenger" depart="1312.20" departLane="best" departSpeed="max" from="724670137" to="568975567"/>
    <trip id="veh93" type="veh_passenger" depart="1326.46" departLane="best" departSpeed="max" from="724670137" to="568975567"/>
    <trip id="veh94" type="veh_passenger" depart="1340.72" departLane="best" departSpeed="max" from="437148783" to="568975567"/>
    <trip id="veh95" type="veh_passenger" depart="1354.99" departLane="best" departSpeed="max" from="724670137" to="568975575#1"/>
    <trip id="veh97" type="veh_passenger" depart="1383.51" departLane="best" departSpeed="max" from="437148783" to="568975567"/>
    <trip id="veh98" type="veh_passenger" depart="1397.78" departLane="best" departSpeed="max" from="724670137" to="568975575#1"/>
    <trip id="veh99" type="veh_passenger" depart="1412.04" departLane="best" departSpeed="max" from="724670137" to="568975567"/>
    <trip id="veh100" type="veh_passenger" depart="1426.30" departLane="best" departSpeed="max" from="437148783" to="568975567"/>
    <trip id="veh102" type="veh_passenger" depart="1454.83" departLane="best" departSpeed="max" from="724670137" to="568975575#1"/>
    <trip id="veh105" type="veh_passenger" depart="1497.62" departLane="best" departSpeed="max" from="437148783" to="568975567"/>
    <trip id="veh106" type="veh_passenger" depart="1511.88" departLane="best" departSpeed="max" from="568975569" to="563743937"/>
    <trip id="veh108" type="veh_passenger" depart="1540.41" departLane="best" departSpeed="max" from="724670137" to="568975575#1"/>
    <trip id="veh110" type="veh_passenger" depart="1568.93" departLane="best" departSpeed="max" from="437148783" to="568975575#1"/>
    <trip id="veh111" type="veh_passenger" depart="1583.19" departLane="best" departSpeed="max" from="724670137" to="568975567"/>
    <trip id="veh112" type="veh_passenger" depart="1597.46" departLane="best" departSpeed="max" from="724670137" to="568975567"/>
    <trip id="veh113" type="veh_passenger" depart="1611.72" departLane="best" departSpeed="max" from="724670137" to="568975575#1"/>
    <trip id="veh114" type="veh_passenger" depart="1625.98" departLane="best" departSpeed="max" from="568975569" to="563743937"/>
    <trip id="veh115" type="veh_passenger" depart="1640.25" departLane="best" departSpeed="max" from="724670137" to="568975567"/>
    <trip id="veh116" type="veh_passenger" depart="1654.51" departLane="best" departSpeed="max" from="568975569" to="563743937"/>
    <trip id="veh118" type="veh_passenger" depart="1683.04" departLane="best" departSpeed="max" from="437148783" to="568975567"/>
    <trip id="veh120" type="veh_passenger" depart="1711.56" departLane="best" departSpeed="max" from="437148783" to="568975575#1"/>
    <trip id="veh121" type="veh_passenger" depart="1725.82" departLane="best" departSpeed="max" from="724670137" to="568975575#1"/>
    <trip id="veh122" type="veh_passenger" depart="1740.09" departLane="best" departSpeed="max" from="437148783" to="362004534"/>
    <trip id="veh123" type="veh_passenger" depart="1754.35" departLane="best" departSpeed="max" from="437148783" to="568975575#1"/>
    <trip id="veh124" type="veh_passenger" depart="1768.61" departLane="best" departSpeed="max" from="724670137" to="568975575#1"/>
    <trip id="veh125" type="veh_passenger" depart="1782.88" departLane="best" departSpeed="max" from="437148783" to="568975575#1"/>
    <trip id="veh126" type="veh_passenger" depart="1797.14" departLane="best" departSpeed="max" from="1074261077" to="563743937"/>
    <trip id="veh127" type="veh_passenger" depart="1811.40" departLane="best" departSpeed="max" from="437148783" to="362004534"/>
    <trip id="veh128" type="veh_passenger" depart="1825.67" departLane="best" departSpeed="max" from="437148783" to="568975575#1"/>
    <trip id="veh130" type="veh_passenger" depart="1854.19" departLane="best" departSpeed="max" from="568975569" to="563743937"/>
    <trip id="veh132" type="veh_passenger" depart="1882.72" departLane="best" departSpeed="max" from="437148783" to="568975567"/>
    <trip id="veh133" type="veh_passenger" depart="1896.98" departLane="best" departSpeed="max" from="724670137" to="568975567"/>
    <trip id="veh134" type="veh_passenger" depart="1911.24" departLane="best" departSpeed="max" from="724670137" to="568975575#1"/>
    <trip id="veh135" type="veh_passenger" depart="1925.51" departLane="best" departSpeed="max" from="1074261077" to="563743937"/>
    <trip id="veh136" type="veh_passenger" depart="1939.77" departLane="best" departSpeed="max" from="724670137" to="568975567"/>
    <trip id="veh137" type="veh_passenger" depart="1954.03" departLane="best" departSpeed="max" from="1074261077" to="563743937"/>
    <trip id="veh138" type="veh_passenger" depart="1968.30" departLane="best" departSpeed="max" from="568975569" to="563743937"/>
    <trip id="veh139" type="veh_passenger" depart="1982.56" departLane="best" departSpeed="max" from="724670137" to="568975575#1"/>
    <trip id="veh141" type="veh_passenger" depart="2011.09" departLane="best" departSpeed="max" from="724670137" to="568975567"/>
    <trip id="veh143" type="veh_passenger" depart="2039.61" departLane="best" departSpeed="max" from="724670137" to="568975567"/>
    <trip id="veh144" type="veh_passenger" depart="2053.87" departLane="best" departSpeed="max" from="724670137" to="568975567"/>
    <trip id="veh145" type="veh_passenger" depart="2068.14" departLane="best" departSpeed="max" from="437148783" to="568975567"/>
    <trip id="veh146" type="veh_passenger" depart="2082.40" departLane="best" departSpeed="max" from="724670137" to="568975575#1"/>
    <trip id="veh147" type="veh_passenger" depart="2096.66" departLane="best" departSpeed="max" from="724670137" to="568975575#1"/>
    <trip id="veh148" type="veh_passenger" depart="2110.93" departLane="best" departSpeed="max" from="437148783" to="568975575#1"/>
    <trip id="veh149" type="veh_passenger" depart="2125.19" departLane="best" departSpeed="max" from="437148783" to="568975567"/>
    <trip id="veh150" type="veh_passenger" depart="2139.45" departLane="best" departSpeed="max" from="437148783" to="362004534"/>
    <trip id="veh151" type="veh_passenger" depart="2153.72" departLane="best" departSpeed="max" from="437148783" to="568975575#1"/>
    <trip id="veh152" type="veh_passenger" depart="2167.98" departLane="best" departSpeed="max" from="1074261077" to="563743937"/>
    <trip id="veh153" type="veh_passenger" depart="2182.24" departLane="best" departSpeed="max" from="724670137" to="568975567"/>
    <trip id="veh154" type="veh_passenger" depart="2196.50" departLane="best" departSpeed="max" from="1074261077" to="563743937"/>
    <trip id="veh155" type="veh_passenger" depart="2210.77" departLane="best" departSpeed="max" from="1074261077" to="563743937"/>
    <trip id="veh156" type="veh_passenger" depart="2225.03" departLane="best" departSpeed="max" from="1074261077" to="563743937"/>
    <trip id="veh157" type="veh_passenger" depart="2239.29" departLane="best" departSpeed="max" from="724670137" to="568975567"/>
    <trip id="veh158" type="veh_passenger" depart="2253.56" departLane="best" departSpeed="max" from="1074261077" to="563743937"/>
    <trip id="veh159" type="veh_passenger" depart="2267.82" departLane="best" departSpeed="max" from="1074261077" to="563743937"/>
    <trip id="veh161" type="veh_passenger" depart="2296.35" departLane="best" departSpeed="max" from="724670137" to="568975567"/>
    <trip id="veh163" type="veh_passenger" depart="2324.87" departLane="best" departSpeed="max" from="724670137" to="568975567"/>
    <trip id="veh164" type="veh_passenger" depart="2339.13" departLane="best" departSpeed="max" from="724670137" to="568975567"/>
    <trip id="veh166" type="veh_passenger" depart="2367.66" departLane="best" departSpeed="max" from="724670137" to="568975567"/>
    <trip id="veh167" type="veh_passenger" depart="2381.92" departLane="best" departSpeed="max" from="724670137" to="568975567"/>
    <trip id="veh168" type="veh_passenger" depart="2396.19" departLane="best" departSpeed="max" from="1074261077" to="563743937"/>
    <trip id="veh169" type="veh_passenger" depart="2410.45" departLane="best" departSpeed="max" from="724670137" to="568975567"/>
    <trip id="veh170" type="veh_passenger" depart="2424.71" departLane="best" departSpeed="max" from="437148783" to="568975575#1"/>
    <trip id="veh171" type="veh_passenger" depart="2438.98" departLane="best" departSpeed="max" from="724670137" to="568975567"/>
    <trip id="veh172" type="veh_passenger" depart="2453.24" departLane="best" departSpeed="max" from="724670137" to="568975575#1"/>
    <trip id="veh173" type="veh_passenger" depart="2467.50" departLane="best" departSpeed="max" from="1074261077" to="563743937"/>
    <trip id="veh174" type="veh_passenger" depart="2481.76" departLane="best" departSpeed="max" from="568975569" to="563743937"/>
    <trip id="veh175" type="veh_passenger" depart="2496.03" departLane="best" departSpeed="max" from="1074261077" to="563743937"/>
    <trip id="veh176" type="veh_passenger" depart="2510.29" departLane="best" departSpeed="max" from="724670137" to="568975567"/>
    <trip id="veh177" type="veh_passenger" depart="2524.55" departLane="best" departSpeed="max" from="437148783" to="568975567"/>
    <trip id="veh178" type="veh_passenger" depart="2538.82" departLane="best" departSpeed="max" from="724670137" to="568975567"/>
    <trip id="veh179" type="veh_passenger" depart="2553.08" departLane="best" departSpeed="max" from="1074261077" to="563743937"/>
    <trip id="veh180" type="veh_passenger" depart="2567.34" departLane="best" departSpeed="max" from="724670137" to="568975567"/>
    <trip id="veh181" type="veh_passenger" depart="2581.61" departLane="best" departSpeed="max" from="568975569" to="563743937"/>
    <trip id="veh182" type="veh_passenger" depart="2595.87" departLane="best" departSpeed="max" from="1074261077" to="563743937"/>
    <trip id="veh183" type="veh_passenger" depart="2610.13" departLane="best" departSpeed="max" from="724670137" to="568975567"/>
    <trip id="veh184" type="veh_passenger" depart="2624.39" departLane="best" departSpeed="max" from="724670137" to="568975575#1"/>
    <trip id="veh185" type="veh_passenger" depart="2638.66" departLane="best" departSpeed="max" from="568975569" to="563743937"/>
    <trip id="veh186" type="veh_passenger" depart="2652.92" departLane="best" departSpeed="max" from="437148783" to="568975567"/>
    <trip id="veh187" type="veh_passenger" depart="2667.18" departLane="best" departSpeed="max" from="724670137" to="568975567"/>
    <trip id="veh188" type="veh_passenger" depart="2681.45" departLane="best" departSpeed="max" from="437148783" to="568975567"/>
    <trip id="veh189" type="veh_passenger" depart="2695.71" departLane="best" departSpeed="max" from="437148783" to="568975567"/>
    <trip id="veh190" type="veh_passenger" depart="2709.97" departLane="best" departSpeed="max" from="724670137" to="568975575#1"/>
    <trip id="veh191" type="veh_passenger" depart="2724.24" departLane="best" departSpeed="max" from="724670137" to="568975567"/>
    <trip id="veh192" type="veh_passenger" depart="2738.50" departLane="best" departSpeed="max" from="437148783" to="568975575#1"/>
    <trip id="veh193" type="veh_passenger" depart="2752.76" departLane="best" departSpeed="max" from="568975569" to="563743937"/>
    <trip id="veh194" type="veh_passenger" depart="2767.03" departLane="best" departSpeed="max" from="568975569" to="563743937"/>
    <trip id="veh195" type="veh_passenger" depart="2781.29" departLane="best" departSpeed="max" from="724670137" to="568975575#1"/>
    <trip id="veh197" type="veh_passenger" depart="2809.81" departLane="best" departSpeed="max" from="724670137" to="568975567"/>
    <trip id="veh198" type="veh_passenger" depart="2824.08" departLane="best" departSpeed="max" from="724670137" to="568975567"/>
    <trip id="veh199" type="veh_passenger" depart="2838.34" departLane="best" departSpeed="max" from="724670137" to="568975575#1"/>
    <trip id="veh200" type="veh_passenger" depart="2852.60" departLane="best" departSpeed="max" from="437148783" to="568975575#1"/>
    <trip id="veh201" type="veh_passenger" depart="2866.87" departLane="best" departSpeed="max" from="568975569" to="563743937"/>
    <trip id="veh202" type="veh_passenger" depart="2881.13" departLane="best" departSpeed="max" from="437148783" to="568975567"/>
    <trip id="veh203" type="veh_passenger" depart="2895.39" departLane="best" departSpeed="max" from="568975569" to="563743937"/>
    <trip id="veh204" type="veh_passenger" depart="2909.66" departLane="best" departSpeed="max" from="724670137" to="362004534"/>
    <trip id="veh205" type="veh_passenger" depart="2923.92" departLane="best" departSpeed="max" from="724670137" to="568975575#1"/>
    <trip id="veh206" type="veh_passenger" depart="2938.18" departLane="best" departSpeed="max" from="724670137" to="568975567"/>
    <trip id="veh207" type="veh_passenger" depart="2952.44" departLane="best" departSpeed="max" from="724670137" to="568975567"/>
    <trip id="veh208" type="veh_passenger" depart="2966.71" departLane="best" departSpeed="max" from="724670137" to="568975567"/>
    <trip id="veh209" type="veh_passenger" depart="2980.97" departLane="best" departSpeed="max" from="568975569" to="563743937"/>
    <trip id="veh210" type="veh_passenger" depart="2995.23" departLane="best" departSpeed="max" from="437148783" to="568975575#1"/>
    <trip id="veh211" type="veh_passenger" depart="3009.50" departLane="best" departSpeed="max" from="724670137" to="568975575#1"/>
    <trip id="veh212" type="veh_passenger" depart="3023.76" departLane="best" departSpeed="max" from="437148783" to="568975567"/>
    <trip id="veh213" type="veh_passenger" depart="3038.02" departLane="best" departSpeed="max" from="724670137" to="362004534"/>
    <trip id="veh214" type="veh_passenger" depart="3052.29" departLane="best" departSpeed="max" from="724670137" to="568975575#1"/>
    <trip id="veh215" type="veh_passenger" depart="3066.55" departLane="best" departSpeed="max" from="724670137" to="568975567"/>
    <trip id="veh216" type="veh_passenger" depart="3080.81" departLane="best" departSpeed="max" from="724670137" to="568975567"/>
    <trip id="veh217" type="veh_passenger" depart="3095.07" departLane="best" departSpeed="max" from="1074261077" to="563743937"/>
    <trip id="veh218" type="veh_passenger" depart="3109.34" departLane="best" departSpeed="max" from="724670137" to="568975567"/>
    <trip id="veh219" type="veh_passenger" depart="3123.60" departLane="best" departSpeed="max" from="1074261077" to="563743937"/>
    <trip id="veh220" type="veh_passenger" depart="3137.86" departLane="best" departSpeed="max" from="724670137" to="568975575#1"/>
    <trip id="veh221" type="veh_passenger" depart="3152.13" departLane="best" departSpeed="max" from="437148783" to="568975567"/>
    <trip id="veh222" type="veh_passenger" depart="3166.39" departLane="best" departSpeed="max" from="568975569" to="563743937"/>
    <trip id="veh223" type="veh_passenger" depart="3180.65" departLane="best" departSpeed="max" from="724670137" to="568975567"/>
    <trip id="veh224" type="veh_passenger" depart="3194.92" departLane="best" departSpeed="max" from="724670137" to="568975575#1"/>
    <trip id="veh225" type="veh_passenger" depart="3209.18" departLane="best" departSpeed="max" from="437148783" to="568975567"/>
    <trip id="veh227" type="veh_passenger" depart="3237.70" departLane="best" departSpeed="max" from="1074261077" to="563743937"/>
    <trip id="veh228" type="veh_passenger" depart="3251.97" departLane="best" departSpeed="max" from="724670137" to="568975567"/>
    <trip id="veh229" type="veh_passenger" depart="3266.23" departLane="best" departSpeed="max" from="724670137" to="568975575#1"/>
    <trip id="veh231" type="veh_passenger" depart="3294.76" departLane="best" departSpeed="max" from="724670137" to="568975575#1"/>
    <trip id="veh232" type="veh_passenger" depart="3309.02" departLane="best" departSpeed="max" from="724670137" to="568975575#1"/>
    <trip id="veh233" type="veh_passenger" depart="3323.28" departLane="best" departSpeed="max" from="437148783" to="568975575#1"/>
    <trip id="veh234" type="veh_passenger" depart="3337.55" departLane="best" departSpeed="max" from="437148783" to="568975575#1"/>
    <trip id="veh235" type="veh_passenger" depart="3351.81" departLane="best" departSpeed="max" from="724670137" to="568975575#1"/>
    <trip id="veh236" type="veh_passenger" depart="3366.07" departLane="best" departSpeed="max" from="1074261077" to="563743937"/>
    <trip id="veh237" type="veh_passenger" depart="3380.33" departLane="best" departSpeed="max" from="1074261077" to="563743937"/>
    <trip id="veh238" type="veh_passenger" depart="3394.60" departLane="best" departSpeed="max" from="724670137" to="568975575#1"/>
    <trip id="veh239" type="veh_passenger" depart="3408.86" departLane="best" departSpeed="max" from="724670137" to="568975567"/>
    <trip id="veh241" type="veh_passenger" depart="3437.39" departLane="best" departSpeed="max" from="724670137" to="362004534"/>
    <trip id="veh242" type="veh_passenger" depart="3451.65" departLane="best" departSpeed="max" from="437148783" to="568975567"/>
    <trip id="veh243" type="veh_passenger" depart="3465.91" departLane="best" departSpeed="max" from="724670137" to="568975575#1"/>