<?xml version="1.0" encoding="UTF-8"?>

<!-- generated on 2024-03-25 15:59:14.059696 by osmWebWizard.py v1_19_0+0000-baa66a0f364
<configuration>
    <net-file value="C:\Users\Gabe Piano\Sumo\2024-03-25-15-59-08\osm.net.xml.gz"/>
    <additional-files value="C:\Users\Gabe Piano\Sumo\2024-03-25-15-59-08\osm_stops.add.xml,C:\Users\Gabe Piano\Sumo\2024-03-25-15-59-08\osm_pt.rou.xml"/>
    <output-trip-file value="C:\Users\Gabe Piano\Sumo\2024-03-25-15-59-08\osm.pedestrian.trips.xml"/>
    <route-file value="C:\Users\Gabe Piano\Sumo\2024-03-25-15-59-08\osm.pedestrian.rou.xml"/>
    <persontrips value="True"/>
    <persontrip.walk-opposite-factor value="0.8"/>
    <prefix value="ped"/>
    <trip-attributes value="modes=&quot;public&quot;"/>
    <vehicle-class value="pedestrian"/>
    <fringe-factor value="1"/>
    <insertion-density value="10.0"/>
</configuration>
-->

<routes xmlns:xsi="http://www.w3.org/2001/XMLSchema-instance" xsi:noNamespaceSchemaLocation="http://sumo.dlr.de/xsd/routes_file.xsd">
    <vType id="ped_pedestrian" vClass="pedestrian"/>
    <person id="ped0" depart="0.00" type="ped_pedestrian">
        <personTrip from="163260019#0" to="-163260371#1" modes="public"/>
    </person>
    <person id="ped1" depart="125.12" type="ped_pedestrian">
        <personTrip from="136145611" to="136145609#1" modes="public"/>
    </person>
    <person id="ped2" depart="250.24" type="ped_pedestrian">
        <personTrip from="174882308" to="163260371#1" modes="public"/>
    </person>
    <person id="ped3" depart="375.36" type="ped_pedestrian">
        <personTrip from="775195091" to="1081726567" modes="public"/>
    </person>
    <person id="ped4" depart="500.47" type="ped_pedestrian">
        <personTrip from="149972708#1" to="-163260371#1" modes="public"/>
    </person>
    <person id="ped5" depart="625.59" type="ped_pedestrian">
        <personTrip from="136145609#1" to="149972715#0" modes="public"/>
    </person>
    <person id="ped6" depart="750.71" type="ped_pedestrian">
        <personTrip from="-163260371#1" to="136145609#0" modes="public"/>
    </person>
    <person id="ped7" depart="875.83" type="ped_pedestrian">
        <personTrip from="163260019#0" to="149972715#2" modes="public"/>
    </person>
    <person id="ped8" depart="1000.95" type="ped_pedestrian">
        <personTrip from="136145609#1" to="158178033" modes="public"/>
    </person>
    <person id="ped9" depart="1126.07" type="ped_pedestrian">
        <personTrip from="294687266" to="-163260371#0" modes="public"/>
    </person>
    <person id="ped10" depart="1251.19" type="ped_pedestrian">
        <personTrip from="294687266" to="163260398" modes="public"/>
    </person>
    <person id="ped11" depart="1376.30" type="ped_pedestrian">
        <personTrip from="136145624#1" to="136145606#0" modes="public"/>
    </person>
    <person id="ped12" depart="1501.42" type="ped_pedestrian">
        <personTrip from="775239750" to="136145624#1" modes="public"/>
    </person>
    <person id="ped13" depart="1626.54" type="ped_pedestrian">
        <personTrip from="1081726567" to="1081726567" modes="public"/>
    </person>
    <person id="ped14" depart="1751.66" type="ped_pedestrian">
        <personTrip from="775180735#0" to="158178048" modes="public"/>
    </person>
    <person id="ped15" depart="1876.78" type="ped_pedestrian">
        <personTrip from="294687266" to="174882308" modes="public"/>
    </person>
    <person id="ped16" depart="2001.90" type="ped_pedestrian">
        <personTrip from="149972715#2" to="775239756" modes="public"/>
    </person>
    <person id="ped17" depart="2127.02" type="ped_pedestrian">
        <personTrip from="136145627#1" to="158178028#0" modes="public"/>
    </person>
    <person id="ped18" depart="2252.13" type="ped_pedestrian">
        <personTrip from="683371217" to="158178048" modes="public"/>
    </person>
    <person id="ped19" depart="2377.25" type="ped_pedestrian">
        <personTrip from="775180735#0" to="158178028#1" modes="public"/>
    </person>
    <person id="ped20" depart="2502.37" type="ped_pedestrian">
        <personTrip from="163260398" to="-775239749" modes="public"/>
    </person>
    <person id="ped21" depart="2627.49" type="ped_pedestrian">
        <personTrip from="136145610#0" to="136145622#0" modes="public"/>
    </person>
    <person id="ped22" depart="2752.61" type="ped_pedestrian">
        <personTrip from="1044608099" to="136145610#0" modes="public"/>
    </person>
    <person id="ped23" depart="2877.73" type="ped_pedestrian">
        <personTrip from="1081726567" to="136145622#0" modes="public"/>
    </person>
    <person id="ped24" depart="3002.85" type="ped_pedestrian">
        <personTrip from="163260018" to="136145627#1" modes="public"/>
    </person>
    <person id="ped25" depart="3127.97" type="ped_pedestrian">
        <personTrip from="136145627#1" to="136145609#1" modes="public"/>
    </person>
    <person id="ped26" depart="3253.08" type="ped_pedestrian">
        <personTrip from="136145611" to="775239747" modes="public"/>
    </person>
    <person id="ped27" depart="3378.20" type="ped_pedestrian">
        <personTrip from="163260019#0" to="158178048" modes="public"/>
    </person>
    <person id="ped28" depart="3503.32" type="ped_pedestrian">
        <personTrip from="136145606#0" to="174882308" modes="public"/>
    </person>
</routes>
