<?xml version="1.0" encoding="UTF-8"?>

<!-- generated on 2024-03-25 15:59:14.732639 by osmWebWizard.py v1_19_0+0000-baa66a0f364
<configuration>
    <net-file value="C:\Users\Gabe Piano\Sumo\2024-03-25-15-59-08\osm.net.xml.gz"/>
    <output-trip-file value="C:\Users\Gabe Piano\Sumo\2024-03-25-15-59-08\osm.truck.trips.xml"/>
    <route-file value="C:\Users\Gabe Piano\Sumo\2024-03-25-15-59-08\osm.truck.rou.xml"/>
    <prefix value="truck"/>
    <trip-attributes value="departLane=&quot;best&quot;"/>
    <fringe-start-attributes value="departSpeed=&quot;max&quot;"/>
    <vehicle-class value="truck"/>
    <fringe-factor value="5"/>
    <vclass value="truck"/>
    <via-edge-types value="highway.motorway,highway.motorway_link,highway.trunk_link,highway.primary_link,highway.secondary_link,highway.tertiary_link"/>
    <min-distance value="600.0"/>
    <min-distance.fringe value="10.0"/>
    <remove-loops value="True"/>
    <validate value="True"/>
    <insertion-density value="8.0"/>
</configuration>
-->

<!-- generated on 2024-03-25 15:59:14 by Eclipse SUMO duarouter Version 1.19.0
<configuration xmlns:xsi="http://www.w3.org/2001/XMLSchema-instance" xsi:noNamespaceSchemaLocation="http://sumo.dlr.de/xsd/duarouterConfiguration.xsd">

    <input>
        <net-file value="C:\Users\Gabe Piano\Sumo\2024-03-25-15-59-08\osm.net.xml.gz"/>
        <route-files value="C:\Users\Gabe Piano\Sumo\2024-03-25-15-59-08\osm.truck.trips.xml"/>
    </input>

    <output>
        <output-file value="C:\Users\Gabe Piano\Sumo\2024-03-25-15-59-08\osm.truck.trips.xml.tmp"/>
        <alternatives-output value="NUL"/>
        <write-trips value="true"/>
    </output>

    <processing>
        <remove-loops value="true"/>
    </processing>

    <time>
        <begin value="0.0"/>
        <end value="3600.0"/>
    </time>

    <report>
        <no-warnings value="true"/>
        <ignore-errors value="true"/>
        <no-step-log value="true"/>
    </report>

</configuration>
-->

<routes xmlns:xsi="http://www.w3.org/2001/XMLSchema-instance" xsi:noNamespaceSchemaLocation="http://sumo.dlr.de/xsd/routes_file.xsd">
    <vType id="truck_truck" vClass="truck"/>
    <trip id="truck0" type="truck_truck" depart="0.00" departLane="best" departSpeed="max" from="437148783" to="362004534"/>
    <trip id="truck1" type="truck_truck" depart="21.39" departLane="best" departSpeed="max" from="724670137" to="362004534"/>
    <trip id="truck2" type="truck_truck" depart="42.79" departLane="best" departSpeed="max" from="437148783" to="568975567"/>
    <trip id="truck3" type="truck_truck" depart="64.18" departLane="best" departSpeed="max" from="437148783" to="568975567"/>
    <trip id="truck4" type="truck_truck" depart="85.58" departLane="best" departSpeed="max" from="724670137" to="362004534"/>
    <trip id="truck5" type="truck_truck" depart="106.97" departLane="best" departSpeed="max" from="724670137" to="568975567"/>
    <trip id="truck6" type="truck_truck" depart="128.37" departLane="best" departSpeed="max" from="437148783" to="362004534"/>
    <trip id="truck7" type="truck_truck" depart="149.76" departLane="best" departSpeed="max" from="724670137" to="568975567"/>
    <trip id="truck8" type="truck_truck" depart="171.16" departLane="best" departSpeed="max" from="724670137" to="568975567"/>
    <trip id="truck9" type="truck_truck" depart="192.55" departLane="best" departSpeed="max" from="437148783" to="568975567"/>
    <trip id="truck10" type="truck_truck" depart="213.95" departLane="best" departSpeed="max" from="724670137" to="568975567"/>
    <trip id="truck11" type="truck_truck" depart="235.34" departLane="best" departSpeed="max" from="724670137" to="568975567"/>
    <trip id="truck13" type="truck_truck" depart="278.13" departLane="best" departSpeed="max" from="1074261077" to="563743937"/>
    <trip id="truck15" type="truck_truck" depart="320.92" departLane="best" departSpeed="max" from="437148783" to="362004534"/>
    <trip id="truck16" type="truck_truck" depart="342.31" departLane="best" departSpeed="max" from="437148783" to="568975575#1"/>
    <trip id="truck17" type="truck_truck" depart="363.71" departLane="best" departSpeed="max" from="1074261077" to="563743937"/>
    <trip id="truck18" type="truck_truck" depart="385.10" departLane="best" departSpeed="max" from="724670137" to="568975567"/>
    <trip id="truck19" type="truck_truck" depart="406.50" departLane="best" departSpeed="max" from="724670137" to="568975575#1"/>
    <trip id="truck20" type="truck_truck" depart="427.89" departLane="best" departSpeed="max" from="437148783" to="362004534"/>
    <trip id="truck22" type="truck_truck" depart="470.68" departLane="best" departSpeed="max" from="437148783" to="568975575#1"/>
    <trip id="truck24" type="truck_truck" depart="513.47" departLane="best" departSpeed="max" from="437148783" to="362004534"/>
    <trip id="truck25" type="truck_truck" depart="534.86" departLane="best" departSpeed="max" from="568975569" to="563743937"/>
    <trip id="truck26" type="truck_truck" depart="556.26" departLane="best" departSpeed="max" from="437148783" to="362004534"/>
    <trip id="truck27" type="truck_truck" depart="577.65" departLane="best" departSpeed="max" from="724670137" to="568975567"/>
    <trip id="truck29" type="truck_truck" depart="620.44" departLane="best" departSpeed="max" from="1074261077" to="563743937"/>
    <trip id="truck30" type="truck_truck" depart="641.84" departLane="best" departSpeed="max" from="724670137" to="568975567"/>
    <trip id="truck31" type="truck_truck" depart="663.23" departLane="best" departSpeed="max" from="724670137" to="568975575#1"/>
    <trip id="truck32" type="truck_truck" depart="684.62" departLane="best" departSpeed="max" from="437148783" to="568975567"/>
    <trip id="truck33" type="truck_truck" depart="706.02" departLane="best" departSpeed="max" from="1074261077" to="563743937"/>
    <trip id="truck34" type="truck_truck" depart="727.41" departLane="best" departSpeed="max" from="724670137" to="568975575#1"/>
    <trip id="truck35" type="truck_truck" depart="748.81" departLane="best" departSpeed="max" from="437148783" to="568975567"/>
    <trip id="truck36" type="truck_truck" depart="770.20" departLane="best" departSpeed="max" from="1074261077" to="563743937"/>
    <trip id="truck37" type="truck_truck" depart="791.60" departLane="best" departSpeed="max" from="724670137" to="568975575#1"/>
    <trip id="truck38" type="truck_truck" depart="812.99" departLane="best" departSpeed="max" from="437148783" to="362004534"/>
    <trip id="truck39" type="truck_truck" depart="834.39" departLane="best" departSpeed="max" from="724670137" to="568975575#1"/>
    <trip id="truck40" type="truck_truck" depart="855.78" departLane="best" departSpeed="max" from="1074261077" to="563743937"/>
    <trip id="truck41" type="truck_truck" depart="877.18" departLane="best" departSpeed="max" from="437148783" to="568975575#1"/>
    <trip id="truck43" type="truck_truck" depart="919.96" departLane="best" departSpeed="max" from="724670137" to="568975567"/>
    <trip id="truck44" type="truck_truck" depart="941.36" departLane="best" departSpeed="max" from="437148783" to="568975567"/>
    <trip id="truck45" type="truck_truck" depart="962.75" departLane="best" departSpeed="max" from="437148783" to="362004534"/>
    <trip id="truck46" type="truck_truck" depart="984.15" departLane="best" departSpeed="max" from="437148783" to="568975575#1"/>
    <trip id="truck47" type="truck_truck" depart="1005.54" departLane="best" departSpeed="max" from="724670137" to="362004534"/>
    <trip id="truck48" type="truck_truck" depart="1026.94" departLane="best" departSpeed="max" from="437148783" to="568975567"/>
    <trip id="truck49" type="truck_truck" depart="1048.33" departLane="best" departSpeed="max" from="437148783" to="362004534"/>
    <trip id="truck50" type="truck_truck" depart="1069.73" departLane="best" departSpeed="max" from="724670137" to="568975567"/>
    <trip id="truck51" type="truck_truck" depart="1091.12" departLane="best" departSpeed="max" from="724670137" to="362004534"/>
    <trip id="truck52" type="truck_truck" depart="1112.52" departLane="best" departSpeed="max" from="1074261077" to="563743937"/>
    <trip id="truck53" type="truck_truck" depart="1133.91" departLane="best" departSpeed="max" from="568975569" to="563743937"/>
    <trip id="truck54" type="truck_truck" depart="1155.30" departLane="best" departSpeed="max" from="724670137" to="362004534"/>
    <trip id="truck55" type="truck_truck" depart="1176.70" departLane="best" departSpeed="max" from="568975569" to="563743937"/>
    <trip id="truck56" type="truck_truck" depart="1198.09" departLane="best" departSpeed="max" from="724670137" to="362004534"/>
    <trip id="truck57" type="truck_truck" depart="1219.49" departLane="best" departSpeed="max" from="1074261077" to="563743937"/>
    <trip id="truck58" type="truck_truck" depart="1240.88" departLane="best" departSpeed="max" from="568975569" to="563743937"/>
    <trip id="truck59" type="truck_truck" depart="1262.28" departLane="best" departSpeed="max" from="437148783" to="568975575#1"/>
    <trip id="truck60" type="truck_truck" depart="1283.67" departLane="best" departSpeed="max" from="724670137" to="568975575#1"/>
    <trip id="truck61" type="truck_truck" depart="1305.07" departLane="best" departSpeed="max" from="724670137" to="568975575#1"/>
    <trip id="truck62" type="truck_truck" depart="1326.46" departLane="best" departSpeed="max" from="724670137" to="362004534"/>
    <trip id="truck63" type="truck_truck" depart="1347.85" departLane="best" departSpeed="max" from="437148783" to="568975575#1"/>
    <trip id="truck64" type="truck_truck" depart="1369.25" departLane="best" departSpeed="max" from="437148783" to="568975575#1"/>
    <trip id="truck65" type="truck_truck" depart="1390.64" departLane="best" departSpeed="max" from="568975569" to="563743937"/>
    <trip id="truck66" type="truck_truck" depart="1412.04" departLane="best" departSpeed="max" from="724670137" to="568975575#1"/>
    <trip id="truck67" type="truck_truck" depart="1433.43" departLane="best" departSpeed="max" from="1074261077" to="563743937"/>
    <trip id="truck68" type="truck_truck" depart="1454.83" departLane="best" departSpeed="max" from="724670137" to="568975567"/>
    <trip id="truck69" type="truck_truck" depart="1476.22" departLane="best" departSpeed="max" from="437148783" to="362004534"/>
    <trip id="truck70" type="truck_truck" depart="1497.62" departLane="best" departSpeed="max" from="724670137" to="362004534"/>
    <trip id="truck71" type="truck_truck" depart="1519.01" departLane="best" departSpeed="max" from="437148783" to="568975567"/>
    <trip id="truck74" type="truck_truck" depart="1583.19" departLane="best" departSpeed="max" from="437148783" to="568975575#1"/>
    <trip id="truck75" type="truck_truck" depart="1604.59" departLane="best" departSpeed="max" from="1074261077" to="563743937"/>
    <trip id="truck76" type="truck_truck" depart="1625.98" departLane="best" departSpeed="max" from="724670137" to="568975575#1"/>
    <trip id="truck77" type="truck_truck" depart="1647.38" departLane="best" departSpeed="max" from="437148783" to="568975575#1"/>
    <trip id="truck78" type="truck_truck" depart="1668.77" departLane="best" departSpeed="max" from="724670137" to="568975575#1"/>
    <trip id="truck79" type="truck_truck" depart="1690.17" departLane="best" departSpeed="max" from="437148783" to="362004534"/>
    <trip id="truck80" type="truck_truck" depart="1711.56" departLane="best" departSpeed="max" from="724670137" to="568975567"/>
    <trip id="truck81" type="truck_truck" depart="1732.96" departLane="best" departSpeed="max" from="437148783" to="568975567"/>
    <trip id="truck83" type="truck_truck" depart="1775.75" departLane="best" departSpeed="max" from="724670137" to="362004534"/>
    <trip id="truck84" type="truck_truck" depart="1797.14" departLane="best" departSpeed="max" from="568975569" to="563743937"/>
    <trip id="truck86" type="truck_truck" depart="1839.93" departLane="best" departSpeed="max" from="724670137" to="568975567"/>
    <trip id="truck87" type="truck_truck" depart="1861.32" departLane="best" departSpeed="max" from="724670137" to="568975567"/>
    <trip id="truck88" type="truck_truck" depart="1882.72" departLane="best" departSpeed="max" from="437148783" to="568975575#1"/>
    <trip id="truck89" type="truck_truck" depart="1904.11" departLane="best" departSpeed="max" from="724670137" to="362004534"/>
    <trip id="truck90" type="truck_truck" depart="1925.51" departLane="best" departSpeed="max" from="437148783" to="362004534"/>
    <trip id="truck91" type="truck_truck" depart="1946.90" departLane="best" departSpeed="max" from="724670137" to="568975575#1"/>
    <trip id="truck92" type="truck_truck" depart="1968.30" departLane="best" departSpeed="max" from="724670137" to="568975575#1"/>
    <trip id="truck93" type="truck_truck" depart="1989.69" departLane="best" departSpeed="max" from="437148783" to="568975575#1"/>
    <trip id="truck94" type="truck_truck" depart="2011.09" departLane="best" departSpeed="max" from="724670137" to="568975575#1"/>
    <trip id="truck95" type="truck_truck" depart="2032.48" departLane="best" departSpeed="max" from="724670137" to="568975575#1"/>
    <trip id="truck96" type="truck_truck" depart="2053.87" departLane="best" departSpeed="max" from="437148783" to="568975575#1"/>
    <trip id="truck97" type="truck_truck" depart="2075.27" departLane="best" departSpeed="max" from="568975569" to="563743937"/>
    <trip id="truck98" type="truck_truck" depart="2096.66" departLane="best" departSpeed="max" from="437148783" to="568975575#1"/>
    <trip id="truck100" type="truck_truck" depart="2139.45" departLane="best" departSpeed="max" from="724670137" to="568975567"/>
    <trip id="truck101" type="truck_truck" depart="2160.85" departLane="best" departSpeed="max" from="724670137" to="362004534"/>
    <trip id="truck102" type="truck_truck" depart="2182.24" departLane="best" departSpeed="max" from="724670137" to="362004534"/>
    <trip id="truck103" type="truck_truck" depart="2203.64" departLane="best" departSpeed="max" from="1074261077" to="563743937"/>
    <trip id="truck105" type="truck_truck" depart="2246.42" departLane="best" departSpeed="max" from="437148783" to="568975567"/>
    <trip id="truck106" type="truck_truck" depart="2267.82" departLane="best" departSpeed="max" from="437148783" to="568975567"/>
    <trip id="truck107" type="truck_truck" depart="2289.21" departLane="best" departSpeed="max" from="437148783" to="362004534"/>
    <trip id="truck109" type="truck_truck" depart="2332.00" departLane="best" departSpeed="max" from="437148783" to="568975575#1"/>
    <trip id="truck112" type="truck_truck" depart="2396.19" departLane="best" departSpeed="max" from="568975569" to="563743937"/>
    <trip id="truck113" type="truck_truck" depart="2417.58" departLane="best" departSpeed="max" from="1074261077" to="563743937"/>
    <trip id="truck114" type="truck_truck" depart="2438.98" departLane="best" departSpeed="max" from="724670137" to="568975567"/>
    <trip id="truck115" type="truck_truck" depart="2460.37" departLane="best" departSpeed="max" from="724670137" to="568975567"/>
    <trip id="truck116" type="truck_truck" depart="2481.76" departLane="best" departSpeed="max" from="437148783" to="568975567"/>
    <trip id="truck117" type="truck_truck" depart="2503.16" departLane="best" departSpeed="max" from="1074261077" to="563743937"/>
    <trip id="truck120" type="truck_truck" depart="2567.34" departLane="best" departSpeed="max" from="724670137" to="568975575#1"/>
    <trip id="truck122" type="truck_truck" depart="2610.13" departLane="best" departSpeed="max" from="724670137" to="362004534"/>
    <trip id="truck123" type="truck_truck" depart="2631.53" departLane="best" departSpeed="max" from="1074261077" to="563743937"/>
    <trip id="truck124" type="truck_truck" depart="2652.92" departLane="best" departSpeed="max" from="437148783" to="568975575#1"/>
    <trip id="truck125" type="truck_truck" depart="2674.32" departLane="best" departSpeed="max" from="724670137" to="568975567"/>
    <trip id="truck126" type="truck_truck" depart="2695.71" departLane="best" departSpeed="max" from="724670137" to="568975567"/>
    <trip id="truck127" type="truck_truck" depart="2717.10" departLane="best" departSpeed="max" from="724670137" to="568975567"/>
    <trip id="truck128" type="truck_truck" depart="2738.50" departLane="best" departSpeed="max" from="568975569" to="563743937"/>
    <trip id="truck129" type="truck_truck" depart="2759.89" departLane="best" departSpeed="max" from="437148783" to="568975567"/>
    <trip id="truck131" type="truck_truck" depart="2802.68" departLane="best" departSpeed="max" from="1074261077" to="563743937"/>
    <trip id="truck133" type="truck_truck" depart="2845.47" departLane="best" departSpeed="max" from="437148783" to="568975567"/>
    <trip id="truck134" type="truck_truck" depart="2866.87" departLane="best" departSpeed="max" from="724670137" to="568975575#1"/>
    <trip id="truck135" type="truck_truck" depart="2888.26" departLane="best" departSpeed="max" from="437148783" to="362004534"/>
    <trip id="truck136" type="truck_truck" depart="2909.66" departLane="best" departSpeed="max" from="437148783" to="568975575#1"/>
    <trip id="truck137" type="truck_truck" depart="2931.05" departLane="best" departSpeed="max" from="724670137" to="568975575#1"/>
    <trip id="truck138" type="truck_truck" depart="2952.44" departLane="best" departSpeed="max" from="437148783" to="362004534"/>
    <trip id="truck139" type="truck_truck" depart="2973.84" departLane="best" departSpeed="max" from="437148783" to="568975567"/>
    <trip id="truck140" type="truck_truck" depart="2995.23" departLane="best" departSpeed="max" from="437148783" to="568975567"/>
    <trip id="truck141" type="truck_truck" depart="3016.63" departLane="best" departSpeed="max" from="1074261077" to="563743937"/>
    <trip id="truck142" type="truck_truck" depart="3038.02" departLane="best" departSpeed="max" from="1074261077" to="563743937"/>
    <trip id="truck145" type="truck_truck" depart="3102.21" departLane="best" departSpeed="max" from="437148783" to="362004534"/>
    <trip id="truck146" type="truck_truck" depart="3123.60" departLane="best" departSpeed="max" from="724670137" to="362004534"/>
    <trip id="truck147" type="truck_truck" depart="3144.99" departLane="best" departSpeed="max" from="724670137" to="568975575#1"/>
    <trip id="truck148" type="truck_truck" depart="3166.39" departLane="best" departSpeed="max" from="437148783" to="568975567"/>
    <trip id="truck149" type="truck_truck" depart="3187.78" departLane="best" departSpeed="max" from="724670137" to="568975567"/>
    <trip id="truck151" type="truck_truck" depart="3230.57" departLane="best" departSpeed="max" from="568975569" to="563743937"/>
    <trip id="truck152" type="truck_truck" depart="3251.97" departLane="best" departSpeed="max" from="568975569" to="563743937"/>
    <trip id="truck153" type="truck_truck" depart="3273.36" departLane="best" departSpeed="max" from="724670137" to="568975575#1"/>
    <trip id="truck155" type="truck_truck" depart="3316.15" departLane="best" departSpeed="max" from="437148783" to="568975575#1"/>
    <trip id="truck156" type="truck_truck" depart="3337.55" departLane="best" departSpeed="max" from="568975569" to="563743937"/>
    <trip id="truck157" type="truck_truck" depart="3358.94" departLane="best" departSpeed="max" from="437148783" to="568975575#1"/>
    <trip id="truck158" type="truck_truck" depart="3380.33" departLane="best" departSpeed="max" from="724670137" to="362004534"/>
    <trip id="truck159" type="truck_truck" depart="3401.73" departLane="best" departSpeed="max" from="724670137" to="362004534"/>
    <trip id="truck160" type="truck_truck" depart="3423.12" departLane="best" departSpeed="max" from="437148783" to="362004534"/>
    <trip id="truck161" type="truck_truck" depart="3444.52" departLane="best" departSpeed="max" from="724670137" to="362004534"/>
    <trip id="truck162" type="truck_truck" depart="3465.91" departLane="best" departSpeed="max" from="437148783" to="568975575#1"/>
    <trip id="truck163" type="truck_truck" depart="3487.31" departLane="best" departSpeed="max" from="437148783" to="568975575#1"/>
    <trip id="truck166" type="truck_truck" depart="3551.49" departLane="best" departSpeed="max" from="568975569" to="563743937"/>
    <trip id="truck167" type="truck_truck" depart="3572.89" departLane="best" departSpeed="max" from="568975569" to="563743937"/>
</routes>
