<?xml version="1.0" encoding="UTF-8"?>

<!-- generated on 2024-03-25 15:59:14.032658 by osmWebWizard.py v1_19_0+0000-baa66a0f364
<configuration>
    <net-file value="C:\Users\Gabe Piano\Sumo\2024-03-25-15-59-08\osm.net.xml.gz"/>
    <output-trip-file value="C:\Users\Gabe Piano\Sumo\2024-03-25-15-59-08\osm.passenger.trips.xml"/>
    <route-file value="C:\Users\Gabe Piano\Sumo\2024-03-25-15-59-08\osm.passenger.rou.xml"/>
    <prefix value="veh"/>
    <trip-attributes value="departLane=&quot;best&quot;"/>
    <fringe-start-attributes value="departSpeed=&quot;max&quot;"/>
    <vehicle-class value="passenger"/>
    <lanes value="True"/>
    <fringe-factor value="5"/>
    <allow-fringe.min-length value="1000.0"/>
    <via-edge-types value="highway.motorway,highway.motorway_link,highway.trunk_link,highway.primary_link,highway.secondary_link,highway.tertiary_link"/>
    <min-distance value="300.0"/>
    <min-distance.fringe value="10.0"/>
    <remove-loops value="True"/>
    <validate value="True"/>
    <insertion-density value="12.0"/>
</configuration>
-->

<!-- generated on 2024-03-25 15:59:13 by Eclipse SUMO duarouter Version 1.19.0
<configuration xmlns:xsi="http://www.w3.org/2001/XMLSchema-instance" xsi:noNamespaceSchemaLocation="http://sumo.dlr.de/xsd/duarouterConfiguration.xsd">

    <input>
        <net-file value="C:\Users\Gabe Piano\Sumo\2024-03-25-15-59-08\osm.net.xml.gz"/>
        <route-files value="C:\Users\Gabe Piano\Sumo\2024-03-25-15-59-08\osm.passenger.trips.xml"/>
    </input>

    <output>
        <output-file value="C:\Users\Gabe Piano\Sumo\2024-03-25-15-59-08\osm.passenger.trips.xml.tmp"/>
        <alternatives-output value="NUL"/>
        <write-trips value="true"/>
    </output>

    <processing>
        <remove-loops value="true"/>
    </processing>

    <time>
        <begin value="0.0"/>
        <end value="3600.0"/>
    </time>

    <report>
        <no-warnings value="true"/>
        <ignore-errors value="true"/>
        <no-step-log value="true"/>
    </report>

</configuration>
-->

<routes xmlns:xsi="http://www.w3.org/2001/XMLSchema-instance" xsi:noNamespaceSchemaLocation="http://sumo.dlr.de/xsd/routes_file.xsd">
     <vType id="UV1" vClass="passenger" guiShape="passenger/van" maxSpeed="22.2" color="1,0,0"/>

    <trip id="UV_Trip1" type="UV1" depart="0.00" departSpeed="5.55" departLane="first" departPos="base" arrivalLane="current" from="724670137" to="568975575#1"/>

    </routes>
