<?xml version="1.0" encoding="UTF-8"?>

<!-- generated on 2024-03-16 11:11:40.759312 by osmWebWizard.py v1_19_0+0000-baa66a0f364
<configuration>
    <net-file value="C:\Users\MartinezKyle_\2024-03-16-09-09-15\osm.net.xml.gz"/>
    <additional-files value="C:\Users\MartinezKyle_\2024-03-16-09-09-15\osm_stops.add.xml,C:\Users\MartinezKyle_\2024-03-16-09-09-15\osm_pt.rou.xml"/>
    <output-trip-file value="C:\Users\MartinezKyle_\2024-03-16-09-09-15\osm.pedestrian.trips.xml"/>
    <route-file value="C:\Users\MartinezKyle_\2024-03-16-09-09-15\osm.pedestrian.rou.xml"/>
    <persontrips value="True"/>
    <persontrip.walk-opposite-factor value="0.8"/>
    <prefix value="ped"/>
    <trip-attributes value="modes=&quot;public&quot;"/>
    <vehicle-class value="pedestrian"/>
    <fringe-factor value="1"/>
    <insertion-density value="10.0"/>
</configuration>
-->

<routes xmlns:xsi="http://www.w3.org/2001/XMLSchema-instance" xsi:noNamespaceSchemaLocation="http://sumo.dlr.de/xsd/routes_file.xsd">
    <vType id="ped_pedestrian" vClass="pedestrian"/>
    <person id="ped0" depart="0.00" type="ped_pedestrian">
        <personTrip from="4304670#5" to="-1087398610" modes="public"/>
    </person>
    <person id="ped1" depart="0.16" type="ped_pedestrian">
        <personTrip from="-851829048" to="-65592378#1" modes="public"/>
    </person>
    <person id="ped2" depart="0.32" type="ped_pedestrian">
        <personTrip from="630495336" to="5478144#13" modes="public"/>
    </person>
    <person id="ped3" depart="0.48" type="ped_pedestrian">
        <personTrip from="888045889#0" to="-167174816#1" modes="public"/>
    </person>
    <person id="ped4" depart="0.64" type="ped_pedestrian">
        <personTrip from="1121135330#1" to="-1103029841" modes="public"/>
    </person>
    <person id="ped5" depart="0.80" type="ped_pedestrian">
        <personTrip from="-651080011" to="160336799#3" modes="public"/>
    </person>
    <person id="ped6" depart="0.96" type="ped_pedestrian">
        <personTrip from="-1092327231" to="-573775236#1" modes="public"/>
    </person>
    <person id="ped7" depart="1.13" type="ped_pedestrian">
        <personTrip from="47898980#1" to="240108789#1" modes="public"/>
    </person>
    <person id="ped8" depart="1.29" type="ped_pedestrian">
        <personTrip from="-653015388" to="307852416#2" modes="public"/>
    </person>
    <person id="ped9" depart="1.45" type="ped_pedestrian">
        <personTrip from="71484004#1" to="-1065937092#1" modes="public"/>
    </person>
    <person id="ped10" depart="1.61" type="ped_pedestrian">
        <personTrip from="710775035" to="571922088#2" modes="public"/>
    </person>
    <person id="ped11" depart="1.77" type="ped_pedestrian">
        <personTrip from="-932714660" to="-369337111#5" modes="public"/>
    </person>
    <person id="ped12" depart="1.93" type="ped_pedestrian">
        <personTrip from="923242628#1" to="-931000242#0" modes="public"/>
    </person>
    <person id="ped13" depart="2.09" type="ped_pedestrian">
        <personTrip from="-183535423#3" to="-205050298" modes="public"/>
    </person>
    <person id="ped14" depart="2.25" type="ped_pedestrian">
        <personTrip from="808215720" to="322738880#2" modes="public"/>
    </person>
    <person id="ped15" depart="2.41" type="ped_pedestrian">
        <personTrip from="711714810#2" to="620338150#0" modes="public"/>
    </person>
    <person id="ped16" depart="2.57" type="ped_pedestrian">
        <personTrip from="22694436#5" to="931133069" modes="public"/>
    </person>
    <person id="ped17" depart="2.73" type="ped_pedestrian">
        <personTrip from="1069128937" to="245068598#1" modes="public"/>
    </person>
    <person id="ped18" depart="2.89" type="ped_pedestrian">
        <personTrip from="772156516#1" to="358640655" modes="public"/>
    </person>
    <person id="ped19" depart="3.06" type="ped_pedestrian">
        <personTrip from="849272658" to="30074874#1" modes="public"/>
    </person>
    <person id="ped20" depart="3.22" type="ped_pedestrian">
        <personTrip from="575161780#0" to="-1219934174#0" modes="public"/>
    </person>
    <person id="ped21" depart="3.38" type="ped_pedestrian">
        <personTrip from="-669785087#0" to="-894188444" modes="public"/>
    </person>
    <person id="ped22" depart="3.54" type="ped_pedestrian">
        <personTrip from="-158180794#2" to="-683472930#3" modes="public"/>
    </person>
    <person id="ped23" depart="3.70" type="ped_pedestrian">
        <personTrip from="-224057427#1" to="-876574583#2" modes="public"/>
    </person>
    <person id="ped24" depart="3.86" type="ped_pedestrian">
        <personTrip from="423423397#1" to="1028142401#1" modes="public"/>
    </person>
    <person id="ped25" depart="4.02" type="ped_pedestrian">
        <personTrip from="1051054155" to="-606532671" modes="public"/>
    </person>
    <person id="ped26" depart="4.18" type="ped_pedestrian">
        <personTrip from="-819562829" to="904726140#2" modes="public"/>
    </person>
    <person id="ped27" depart="4.34" type="ped_pedestrian">
        <personTrip from="460054274#2" to="331784434#5" modes="public"/>
    </person>
    <person id="ped28" depart="4.50" type="ped_pedestrian">
        <personTrip from="-49602122#2" to="617342492#0" modes="public"/>
    </person>
    <person id="ped29" depart="4.66" type="ped_pedestrian">
        <personTrip from="-429048111" to="1069487331" modes="public"/>
    </person>
    <person id="ped30" depart="4.82" type="ped_pedestrian">
        <personTrip from="935718627" to="431339661#2" modes="public"/>
    </person>
    <person id="ped31" depart="4.99" type="ped_pedestrian">
        <personTrip from="2667097#0" to="556852190#1" modes="public"/>
    </person>
    <person id="ped32" depart="5.15" type="ped_pedestrian">
        <personTrip from="795106504" to="683371217" modes="public"/>
    </person>
    <person id="ped33" depart="5.31" type="ped_pedestrian">
        <personTrip from="-670006775#1" to="-1119499052" modes="public"/>
    </person>
    <person id="ped34" depart="5.47" type="ped_pedestrian">
        <personTrip from="-902969261" to="-826230136#0" modes="public"/>
    </person>
    <person id="ped35" depart="5.63" type="ped_pedestrian">
        <personTrip from="-621072457#1" to="91214805#3" modes="public"/>
    </person>
    <person id="ped36" depart="5.79" type="ped_pedestrian">
        <personTrip from="868989761#0" to="-902891406" modes="public"/>
    </person>
    <person id="ped37" depart="5.95" type="ped_pedestrian">
        <personTrip from="50145017#2" to="1077990310#2" modes="public"/>
    </person>
    <person id="ped38" depart="6.11" type="ped_pedestrian">
        <personTrip from="894797943" to="1248162697#1" modes="public"/>
    </person>
    <person id="ped39" depart="6.27" type="ped_pedestrian">
        <personTrip from="-799284234#1" to="-708338527" modes="public"/>
    </person>
    <person id="ped40" depart="6.43" type="ped_pedestrian">
        <personTrip from="279218330#2" to="-791530030#2" modes="public"/>
    </person>
    <person id="ped41" depart="6.59" type="ped_pedestrian">
        <personTrip from="303418216#6" to="893248440" modes="public"/>
    </person>
    <person id="ped42" depart="6.75" type="ped_pedestrian">
        <personTrip from="1082177091#2" to="-652030978" modes="public"/>
    </person>
    <person id="ped43" depart="6.92" type="ped_pedestrian">
        <personTrip from="9868549" to="162106241#5" modes="public"/>
    </person>
    <person id="ped44" depart="7.08" type="ped_pedestrian">
        <personTrip from="-177418493#0" to="-1227489245#4" modes="public"/>
    </person>
    <person id="ped45" depart="7.24" type="ped_pedestrian">
        <personTrip from="-242782283#0" to="39342020#1" modes="public"/>
    </person>
    <person id="ped46" depart="7.40" type="ped_pedestrian">
        <personTrip from="696707049" to="1121136193#0" modes="public"/>
    </person>
    <person id="ped47" depart="7.56" type="ped_pedestrian">
        <personTrip from="-132684508" to="1069874345" modes="public"/>
    </person>
    <person id="ped48" depart="7.72" type="ped_pedestrian">
        <personTrip from="986071524#0" to="209860586#1" modes="public"/>
    </person>
    <person id="ped49" depart="7.88" type="ped_pedestrian">
        <personTrip from="930525040#3" to="842266858#7" modes="public"/>
    </person>
    <person id="ped50" depart="8.04" type="ped_pedestrian">
        <personTrip from="-1073483479#1" to="586033821#2" modes="public"/>
    </person>
    <person id="ped51" depart="8.20" type="ped_pedestrian">
        <personTrip from="556133713" to="22731192" modes="public"/>
    </person>
    <person id="ped52" depart="8.36" type="ped_pedestrian">
        <personTrip from="-816053851" to="431345965" modes="public"/>
    </person>
    <person id="ped53" depart="8.52" type="ped_pedestrian">
        <personTrip from="-243476205#1" to="1169932789#2" modes="public"/>
    </person>
    <person id="ped54" depart="8.68" type="ped_pedestrian">
        <personTrip from="1241852225" to="920923388" modes="public"/>
    </person>
    <person id="ped55" depart="8.85" type="ped_pedestrian">
        <personTrip from="868747805#0" to="-793504191#0" modes="public"/>
    </person>
    <person id="ped56" depart="9.01" type="ped_pedestrian">
        <personTrip from="158324460#1" to="-51804623#5" modes="public"/>
    </person>
    <person id="ped57" depart="9.17" type="ped_pedestrian">
        <personTrip from="894548674" to="863500166#1" modes="public"/>
    </person>
    <person id="ped58" depart="9.33" type="ped_pedestrian">
        <personTrip from="-894538236#1" to="428777331#1" modes="public"/>
    </person>
    <person id="ped59" depart="9.49" type="ped_pedestrian">
        <personTrip from="331784434#0" to="-360812548" modes="public"/>
    </person>
    <person id="ped60" depart="9.65" type="ped_pedestrian">
        <personTrip from="667607219#0" to="22738535#4" modes="public"/>
    </person>
    <person id="ped61" depart="9.81" type="ped_pedestrian">
        <personTrip from="688086637#1" to="224015282#0" modes="public"/>
    </person>
    <person id="ped62" depart="9.97" type="ped_pedestrian">
        <personTrip from="-1010708846#1" to="-923762464" modes="public"/>
    </person>
    <person id="ped63" depart="10.13" type="ped_pedestrian">
        <personTrip from="-1080232963#0" to="901878978#1" modes="public"/>
    </person>
    <person id="ped64" depart="10.29" type="ped_pedestrian">
        <personTrip from="872732771" to="775154932" modes="public"/>
    </person>
    <person id="ped65" depart="10.45" type="ped_pedestrian">
        <personTrip from="-899774894#1" to="-1255722312" modes="public"/>
    </person>
    <person id="ped66" depart="10.61" type="ped_pedestrian">
        <personTrip from="870991326" to="91581354#0" modes="public"/>
    </person>
    <person id="ped67" depart="10.78" type="ped_pedestrian">
        <personTrip from="-164911215" to="154882991#5" modes="public"/>
    </person>
    <person id="ped68" depart="10.94" type="ped_pedestrian">
        <personTrip from="-153309664#2" to="665787527" modes="public"/>
    </person>
    <person id="ped69" depart="11.10" type="ped_pedestrian">
        <personTrip from="670259857" to="-28788433" modes="public"/>
    </person>
    <person id="ped70" depart="11.26" type="ped_pedestrian">
        <personTrip from="14438739#0" to="243473091#9" modes="public"/>
    </person>
    <person id="ped71" depart="11.42" type="ped_pedestrian">
        <personTrip from="-799284234#7" to="864492923#0" modes="public"/>
    </person>
    <person id="ped72" depart="11.58" type="ped_pedestrian">
        <personTrip from="1123783276" to="-622254355" modes="public"/>
    </person>
    <person id="ped73" depart="11.74" type="ped_pedestrian">
        <personTrip from="22738535#14" to="621030725#4" modes="public"/>
    </person>
    <person id="ped74" depart="11.90" type="ped_pedestrian">
        <personTrip from="-578772183#1" to="-902562876" modes="public"/>
    </person>
    <person id="ped75" depart="12.06" type="ped_pedestrian">
        <personTrip from="97804016#3" to="47898980#0" modes="public"/>
    </person>
    <person id="ped76" depart="12.22" type="ped_pedestrian">
        <personTrip from="1183627171" to="177410154" modes="public"/>
    </person>
    <person id="ped77" depart="12.38" type="ped_pedestrian">
        <personTrip from="-28049340#0" to="-661083911#1" modes="public"/>
    </person>
    <person id="ped78" depart="12.54" type="ped_pedestrian">
        <personTrip from="-931576151" to="307431058#0" modes="public"/>
    </person>
    <person id="ped79" depart="12.71" type="ped_pedestrian">
        <personTrip from="-670286169#1" to="-652446854" modes="public"/>
    </person>
    <person id="ped80" depart="12.87" type="ped_pedestrian">
        <personTrip from="-155798416#0" to="4075788#0" modes="public"/>
    </person>
    <person id="ped81" depart="13.03" type="ped_pedestrian">
        <personTrip from="-670006773#1" to="894248986" modes="public"/>
    </person>
    <person id="ped82" depart="13.19" type="ped_pedestrian">
        <personTrip from="839785502#1" to="-154882991#4" modes="public"/>
    </person>
    <person id="ped83" depart="13.35" type="ped_pedestrian">
        <personTrip from="-693152282" to="537076566" modes="public"/>
    </person>
    <person id="ped84" depart="13.51" type="ped_pedestrian">
        <personTrip from="-628599884" to="-294687262#4" modes="public"/>
    </person>
    <person id="ped85" depart="13.67" type="ped_pedestrian">
        <personTrip from="903012137" to="28788443#0" modes="public"/>
    </person>
    <person id="ped86" depart="13.83" type="ped_pedestrian">
        <personTrip from="136145628#0" to="693152290" modes="public"/>
    </person>
    <person id="ped87" depart="13.99" type="ped_pedestrian">
        <personTrip from="711928952" to="-556882377" modes="public"/>
    </person>
    <person id="ped88" depart="14.15" type="ped_pedestrian">
        <personTrip from="-208920409#4" to="1158033493" modes="public"/>
    </person>
    <person id="ped89" depart="14.31" type="ped_pedestrian">
        <personTrip from="1124351662" to="1262263490" modes="public"/>
    </person>
    <person id="ped90" depart="14.47" type="ped_pedestrian">
        <personTrip from="617333047#0" to="544489067#1" modes="public"/>
    </person>
    <person id="ped91" depart="14.64" type="ped_pedestrian">
        <personTrip from="93407534" to="-224015281#1" modes="public"/>
    </person>
    <person id="ped92" depart="14.80" type="ped_pedestrian">
        <personTrip from="1086315975" to="-932303429" modes="public"/>
    </person>
    <person id="ped93" depart="14.96" type="ped_pedestrian">
        <personTrip from="849272657" to="-710691901" modes="public"/>
    </person>
    <person id="ped94" depart="15.12" type="ped_pedestrian">
        <personTrip from="-556641205" to="1231640576#0" modes="public"/>
    </person>
    <person id="ped95" depart="15.28" type="ped_pedestrian">
        <personTrip from="1121135329#6" to="-878958166" modes="public"/>
    </person>
    <person id="ped96" depart="15.44" type="ped_pedestrian">
        <personTrip from="-712245736#2" to="897428387#1" modes="public"/>
    </person>
    <person id="ped97" depart="15.60" type="ped_pedestrian">
        <personTrip from="1209266056#1" to="849074623#1" modes="public"/>
    </person>
    <person id="ped98" depart="15.76" type="ped_pedestrian">
        <personTrip from="243875946" to="-1242129171" modes="public"/>
    </person>
    <person id="ped99" depart="15.92" type="ped_pedestrian">
        <personTrip from="99663379#1" to="775865062#1" modes="public"/>
    </person>
    <person id="ped100" depart="16.08" type="ped_pedestrian">
        <personTrip from="929625104#0" to="900688541" modes="public"/>
    </person>
    <person id="ped101" depart="16.24" type="ped_pedestrian">
        <personTrip from="814018751#0" to="-4479710#27" modes="public"/>
    </person>
    <person id="ped102" depart="16.40" type="ped_pedestrian">
        <personTrip from="154837037" to="-623383762#0" modes="public"/>
    </person>
    <person id="ped103" depart="16.57" type="ped_pedestrian">
        <personTrip from="1085039266" to="-1256644452" modes="public"/>
    </person>
    <person id="ped104" depart="16.73" type="ped_pedestrian">
        <personTrip from="1069140886" to="934206390#0" modes="public"/>
    </person>
    <person id="ped105" depart="16.89" type="ped_pedestrian">
        <personTrip from="-799533706" to="693152265" modes="public"/>
    </person>
    <person id="ped106" depart="17.05" type="ped_pedestrian">
        <personTrip from="1242758669" to="1123244160#2" modes="public"/>
    </person>
    <person id="ped107" depart="17.21" type="ped_pedestrian">
        <personTrip from="923242629#1" to="982164798#1" modes="public"/>
    </person>
    <person id="ped108" depart="17.37" type="ped_pedestrian">
        <personTrip from="252581866#1" to="584296027#2" modes="public"/>
    </person>
    <person id="ped109" depart="17.53" type="ped_pedestrian">
        <personTrip from="-369337109#2" to="-894490080#0" modes="public"/>
    </person>
    <person id="ped110" depart="17.69" type="ped_pedestrian">
        <personTrip from="929614748" to="30260190" modes="public"/>
    </person>
    <person id="ped111" depart="17.85" type="ped_pedestrian">
        <personTrip from="23379909" to="653015351#1" modes="public"/>
    </person>
    <person id="ped112" depart="18.01" type="ped_pedestrian">
        <personTrip from="-1255330223" to="303412427#1" modes="public"/>
    </person>
    <person id="ped113" depart="18.17" type="ped_pedestrian">
        <personTrip from="160100095#1" to="823295203" modes="public"/>
    </person>
    <person id="ped114" depart="18.33" type="ped_pedestrian">
        <personTrip from="-39809916" to="92691568#2" modes="public"/>
    </person>
    <person id="ped115" depart="18.50" type="ped_pedestrian">
        <personTrip from="-158180806#0" to="-554858951#0" modes="public"/>
    </person>
    <person id="ped116" depart="18.66" type="ped_pedestrian">
        <personTrip from="314062823" to="545231796" modes="public"/>
    </person>
    <person id="ped117" depart="18.82" type="ped_pedestrian">
        <personTrip from="-69021749#1" to="-27790430#0" modes="public"/>
    </person>
    <person id="ped118" depart="18.98" type="ped_pedestrian">
        <personTrip from="885112950#2" to="-706248354#1" modes="public"/>
    </person>
    <person id="ped119" depart="19.14" type="ped_pedestrian">
        <personTrip from="313947539#2" to="360817909#1" modes="public"/>
    </person>
    <person id="ped120" depart="19.30" type="ped_pedestrian">
        <personTrip from="1119299306" to="303327252#5" modes="public"/>
    </person>
    <person id="ped121" depart="19.46" type="ped_pedestrian">
        <personTrip from="183687474" to="902909000" modes="public"/>
    </person>
    <person id="ped122" depart="19.62" type="ped_pedestrian">
        <personTrip from="-581086943" to="583653410#1" modes="public"/>
    </person>
    <person id="ped123" depart="19.78" type="ped_pedestrian">
        <personTrip from="-693154768#2" to="1077990316" modes="public"/>
    </person>
    <person id="ped124" depart="19.94" type="ped_pedestrian">
        <personTrip from="542100535#1" to="-894687014" modes="public"/>
    </person>
    <person id="ped125" depart="20.10" type="ped_pedestrian">
        <personTrip from="-904645326#1" to="655150133#0" modes="public"/>
    </person>
    <person id="ped126" depart="20.26" type="ped_pedestrian">
        <personTrip from="-155992360#0" to="1248149933#2" modes="public"/>
    </person>
    <person id="ped127" depart="20.43" type="ped_pedestrian">
        <personTrip from="988860936#0" to="986071524#0" modes="public"/>
    </person>
    <person id="ped128" depart="20.59" type="ped_pedestrian">
        <personTrip from="-156275391#7" to="-622940471" modes="public"/>
    </person>
    <person id="ped129" depart="20.75" type="ped_pedestrian">
        <personTrip from="-799533706" to="902659776#0" modes="public"/>
    </person>
    <person id="ped130" depart="20.91" type="ped_pedestrian">
        <personTrip from="876132692" to="874636206" modes="public"/>
    </person>
    <person id="ped131" depart="21.07" type="ped_pedestrian">
        <personTrip from="1046833114" to="-401518526" modes="public"/>
    </person>
    <person id="ped132" depart="21.23" type="ped_pedestrian">
        <personTrip from="775437519#2" to="574917575#0" modes="public"/>
    </person>
    <person id="ped133" depart="21.39" type="ped_pedestrian">
        <personTrip from="332100682#15" to="934542046" modes="public"/>
    </person>
    <person id="ped134" depart="21.55" type="ped_pedestrian">
        <personTrip from="4994631#1" to="-1066156531#0" modes="public"/>
    </person>
    <person id="ped135" depart="21.71" type="ped_pedestrian">
        <personTrip from="743184218" to="-894571861" modes="public"/>
    </person>
    <person id="ped136" depart="21.87" type="ped_pedestrian">
        <personTrip from="51804623#22" to="90955084" modes="public"/>
    </person>
    <person id="ped137" depart="22.03" type="ped_pedestrian">
        <personTrip from="-303262173" to="-25068086#1" modes="public"/>
    </person>
    <person id="ped138" depart="22.19" type="ped_pedestrian">
        <personTrip from="-238967422#0" to="245141256" modes="public"/>
    </person>
    <person id="ped139" depart="22.36" type="ped_pedestrian">
        <personTrip from="-849272663" to="326084997#1" modes="public"/>
    </person>
    <person id="ped140" depart="22.52" type="ped_pedestrian">
        <personTrip from="583676451#4" to="-580670782" modes="public"/>
    </person>
    <person id="ped141" depart="22.68" type="ped_pedestrian">
        <personTrip from="4202498#4" to="-793705319#5" modes="public"/>
    </person>
    <person id="ped142" depart="22.84" type="ped_pedestrian">
        <personTrip from="156275391#1" to="894248087#1" modes="public"/>
    </person>
    <person id="ped143" depart="23.00" type="ped_pedestrian">
        <personTrip from="803621744#0" to="-182969216#0" modes="public"/>
    </person>
    <person id="ped144" depart="23.16" type="ped_pedestrian">
        <personTrip from="1124351662" to="-864646208" modes="public"/>
    </person>
    <person id="ped145" depart="23.32" type="ped_pedestrian">
        <personTrip from="-1026908282" to="676131018#2" modes="public"/>
    </person>
    <person id="ped146" depart="23.48" type="ped_pedestrian">
        <personTrip from="4248688#1" to="-775548474" modes="public"/>
    </person>
    <person id="ped147" depart="23.64" type="ped_pedestrian">
        <personTrip from="638332771" to="244441662#13" modes="public"/>
    </person>
    <person id="ped148" depart="23.80" type="ped_pedestrian">
        <personTrip from="114216299#0" to="-1069454945#1" modes="public"/>
    </person>
    <person id="ped149" depart="23.96" type="ped_pedestrian">
        <personTrip from="-157032834" to="876156656#1" modes="public"/>
    </person>
    <person id="ped150" depart="24.12" type="ped_pedestrian">
        <personTrip from="894224877" to="241126676#1" modes="public"/>
    </person>
    <person id="ped151" depart="24.29" type="ped_pedestrian">
        <personTrip from="775548470" to="303307417#0" modes="public"/>
    </person>
    <person id="ped152" depart="24.45" type="ped_pedestrian">
        <personTrip from="-332100682#2" to="-28724490#17" modes="public"/>
    </person>
    <person id="ped153" depart="24.61" type="ped_pedestrian">
        <personTrip from="-900688541" to="893308294#1" modes="public"/>
    </person>
    <person id="ped154" depart="24.77" type="ped_pedestrian">
        <personTrip from="704338382" to="842266858#13" modes="public"/>
    </person>
    <person id="ped155" depart="24.93" type="ped_pedestrian">
        <personTrip from="893308293" to="-610761730#2" modes="public"/>
    </person>
    <person id="ped156" depart="25.09" type="ped_pedestrian">
        <personTrip from="-711928943#0" to="-22694436#6" modes="public"/>
    </person>
    <person id="ped157" depart="25.25" type="ped_pedestrian">
        <personTrip from="689253512#4" to="876574578" modes="public"/>
    </person>
    <person id="ped158" depart="25.41" type="ped_pedestrian">
        <personTrip from="1088132239#3" to="361680289#1" modes="public"/>
    </person>
    <person id="ped159" depart="25.57" type="ped_pedestrian">
        <personTrip from="-369337105#0" to="902555073" modes="public"/>
    </person>
    <person id="ped160" depart="25.73" type="ped_pedestrian">
        <personTrip from="849642535#4" to="932003497" modes="public"/>
    </person>
    <person id="ped161" depart="25.89" type="ped_pedestrian">
        <personTrip from="716997270" to="876136331#2" modes="public"/>
    </person>
    <person id="ped162" depart="26.05" type="ped_pedestrian">
        <personTrip from="-1087217290" to="630495407" modes="public"/>
    </person>
    <person id="ped163" depart="26.22" type="ped_pedestrian">
        <personTrip from="-928892271" to="902584011" modes="public"/>
    </person>
    <person id="ped164" depart="26.38" type="ped_pedestrian">
        <personTrip from="709979891#7" to="849272716#0" modes="public"/>
    </person>
    <person id="ped165" depart="26.54" type="ped_pedestrian">
        <personTrip from="715753103" to="-816053851" modes="public"/>
    </person>
    <person id="ped166" depart="26.70" type="ped_pedestrian">
        <personTrip from="693454118#3" to="-240114556" modes="public"/>
    </person>
    <person id="ped167" depart="26.86" type="ped_pedestrian">
        <personTrip from="864149883" to="836650704" modes="public"/>
    </person>
    <person id="ped168" depart="27.02" type="ped_pedestrian">
        <personTrip from="-654937960" to="742804950" modes="public"/>
    </person>
    <person id="ped169" depart="27.18" type="ped_pedestrian">
        <personTrip from="1251686700" to="-896977913#2" modes="public"/>
    </person>
    <person id="ped170" depart="27.34" type="ped_pedestrian">
        <personTrip from="703809846#0" to="-669753379" modes="public"/>
    </person>
    <person id="ped171" depart="27.50" type="ped_pedestrian">
        <personTrip from="-1086824570" to="-561964404" modes="public"/>
    </person>
    <person id="ped172" depart="27.66" type="ped_pedestrian">
        <personTrip from="-927589973" to="849642530#2" modes="public"/>
    </person>
    <person id="ped173" depart="27.82" type="ped_pedestrian">
        <personTrip from="928803377" to="-879172118#0" modes="public"/>
    </person>
    <person id="ped174" depart="27.98" type="ped_pedestrian">
        <personTrip from="431355694#0" to="1082301146" modes="public"/>
    </person>
    <person id="ped175" depart="28.15" type="ped_pedestrian">
        <personTrip from="933149173" to="22694436#5" modes="public"/>
    </person>
    <person id="ped176" depart="28.31" type="ped_pedestrian">
        <personTrip from="909949880#2" to="-245321835#2" modes="public"/>
    </person>
    <person id="ped177" depart="28.47" type="ped_pedestrian">
        <personTrip from="930516221" to="-51804623#21" modes="public"/>
    </person>
    <person id="ped178" depart="28.63" type="ped_pedestrian">
        <personTrip from="927107237" to="-801449569" modes="public"/>
    </person>
    <person id="ped179" depart="28.79" type="ped_pedestrian">
        <personTrip from="-241126675" to="1169821278" modes="public"/>
    </person>
    <person id="ped180" depart="28.95" type="ped_pedestrian">
        <personTrip from="614652217" to="-902642499" modes="public"/>
    </person>
    <person id="ped181" depart="29.11" type="ped_pedestrian">
        <personTrip from="33066192#0" to="164911209#8" modes="public"/>
    </person>
    <person id="ped182" depart="29.27" type="ped_pedestrian">
        <personTrip from="1074006926#3" to="295122031#0" modes="public"/>
    </person>
    <person id="ped183" depart="29.43" type="ped_pedestrian">
        <personTrip from="-758779650#2" to="579100498" modes="public"/>
    </person>
    <person id="ped184" depart="29.59" type="ped_pedestrian">
        <personTrip from="-1015998828" to="899774893#1" modes="public"/>
    </person>
    <person id="ped185" depart="29.75" type="ped_pedestrian">
        <personTrip from="22733733#18" to="584825955" modes="public"/>
    </person>
    <person id="ped186" depart="29.91" type="ped_pedestrian">
        <personTrip from="642404470#2" to="54155768#1" modes="public"/>
    </person>
    <person id="ped187" depart="30.08" type="ped_pedestrian">
        <personTrip from="1026250052#3" to="-154422841#2" modes="public"/>
    </person>
    <person id="ped188" depart="30.24" type="ped_pedestrian">
        <personTrip from="51804625#13" to="-928250041#1" modes="public"/>
    </person>
    <person id="ped189" depart="30.40" type="ped_pedestrian">
        <personTrip from="-902645535" to="812522280#1" modes="public"/>
    </person>
    <person id="ped190" depart="30.56" type="ped_pedestrian">
        <personTrip from="58586719#0" to="-894802468" modes="public"/>
    </person>
    <person id="ped191" depart="30.72" type="ped_pedestrian">
        <personTrip from="-901455213" to="1092526176" modes="public"/>
    </person>
    <person id="ped192" depart="30.88" type="ped_pedestrian">
        <personTrip from="1085794447#3" to="-894471849" modes="public"/>
    </person>
    <person id="ped193" depart="31.04" type="ped_pedestrian">
        <personTrip from="-28724490#11" to="1119534906" modes="public"/>
    </person>
    <person id="ped194" depart="31.20" type="ped_pedestrian">
        <personTrip from="911005110#2" to="552991711" modes="public"/>
    </person>
    <person id="ped195" depart="31.36" type="ped_pedestrian">
        <personTrip from="894209066#0" to="35038913#3" modes="public"/>
    </person>
    <person id="ped196" depart="31.52" type="ped_pedestrian">