<?xml version="1.0" encoding="UTF-8"?>

<!-- generated on 2024-03-16 09:38:15.195872 by osmWebWizard.py v1_19_0+0000-baa66a0f364
<configuration>
    <net-file value="C:\Users\MartinezKyle_\2024-03-16-09-09-15\osm.net.xml.gz"/>
    <output-trip-file value="C:\Users\MartinezKyle_\2024-03-16-09-09-15\osm.bicycle.trips.xml"/>
    <route-file value="C:\Users\MartinezKyle_\2024-03-16-09-09-15\osm.bicycle.rou.xml"/>
    <prefix value="bike"/>
    <trip-attributes value="departLane=&quot;best&quot;"/>
    <fringe-start-attributes value="departSpeed=&quot;max&quot;"/>
    <vehicle-class value="bicycle"/>
    <fringe-factor value="2"/>
    <vclass value="bicycle"/>
    <via-edge-types value="highway.motorway,highway.motorway_link,highway.trunk_link,highway.primary_link,highway.secondary_link,highway.tertiary_link"/>
    <max-distance value="8000.0"/>
    <remove-loops value="True"/>
    <validate value="True"/>
    <insertion-density value="6.0"/>
</configuration>
-->

<!-- generated on 2024-03-16 09:24:03 by Eclipse SUMO duarouter Version 1.19.0
<configuration xmlns:xsi="http://www.w3.org/2001/XMLSchema-instance" xsi:noNamespaceSchemaLocation="http://sumo.dlr.de/xsd/duarouterConfiguration.xsd">

    <input>
        <net-file value="C:\Users\MartinezKyle_\2024-03-16-09-09-15\osm.net.xml.gz"/>
        <route-files value="C:\Users\MartinezKyle_\2024-03-16-09-09-15\osm.bicycle.trips.xml"/>
    </input>

    <output>
        <output-file value="C:\Users\MartinezKyle_\2024-03-16-09-09-15\osm.bicycle.trips.xml.tmp"/>
        <alternatives-output value="NUL"/>
        <write-trips value="true"/>
    </output>

    <processing>
        <remove-loops value="true"/>
    </processing>

    <time>
        <begin value="0.0"/>
        <end value="3600.0"/>
    </time>

    <report>
        <no-warnings value="true"/>
        <ignore-errors value="true"/>
        <no-step-log value="true"/>
    </report>

</configuration>
-->

<routes xmlns:xsi="http://www.w3.org/2001/XMLSchema-instance" xsi:noNamespaceSchemaLocation="http://sumo.dlr.de/xsd/routes_file.xsd">
    <vType id="bike_bicycle" vClass="bicycle"/>
    <trip id="bike0" type="bike_bicycle" depart="0.00" departLane="best" from="-541919245#3" to="-4994789#1"/>
    <trip id="bike1" type="bike_bicycle" depart="0.10" departLane="best" from="5025169#0" to="-339649293#0"/>
    <trip id="bike2" type="bike_bicycle" depart="0.20" departLane="best" from="-4443908#7" to="1262660460"/>
    <trip id="bike3" type="bike_bicycle" depart="0.30" departLane="best" from="156919326#3" to="-157032781#1"/>
    <trip id="bike4" type="bike_bicycle" depart="0.40" departLane="best" from="-892972194" to="1059434295"/>
    <trip id="bike5" type="bike_bicycle" depart="0.50" departLane="best" from="157807193#1" to="561970271"/>
    <trip id="bike6" type="bike_bicycle" depart="0.60" departLane="best" from="-30105926#2" to="-14438183#6"/>
    <trip id="bike7" type="bike_bicycle" depart="0.70" departLane="best" from="-28295393" to="-5040668#3"/>
    <trip id="bike8" type="bike_bicycle" depart="0.80" departLane="best" departSpeed="max" from="670006775#0" to="563021935#1"/>
    <trip id="bike9" type="bike_bicycle" depart="0.90" departLane="best" from="64168170#3" to="538184795"/>
    <trip id="bike10" type="bike_bicycle" depart="1.00" departLane="best" from="-40130700#0" to="91581311#7"/>
    <trip id="bike11" type="bike_bicycle" depart="1.10" departLane="best" from="-51804624#2" to="-5049591"/>
    <trip id="bike12" type="bike_bicycle" depart="1.20" departLane="best" from="154835593#1" to="-526957126"/>
    <trip id="bike13" type="bike_bicycle" depart="1.29" departLane="best" from="-157206914#0" to="887549563#0"/>
    <trip id="bike14" type="bike_bicycle" depart="1.39" departLane="best" from="901605522#7" to="-47899010#3"/>
    <trip id="bike15" type="bike_bicycle" depart="1.49" departLane="best" from="-9867992#7" to="140618302"/>
    <trip id="bike18" type="bike_bicycle" depart="1.79" departLane="best" departSpeed="max" from="926119356" to="772066354#1"/>
    <trip id="bike19" type="bike_bicycle" depart="1.89" departLane="best" from="-1075015281" to="5032242#2"/>
    <trip id="bike20" type="bike_bicycle" depart="1.99" departLane="best" from="-5192964#17" to="28049175#2"/>
    <trip id="bike21" type="bike_bicycle" depart="2.09" departLane="best" from="-163246005#4" to="-938323901"/>
    <trip id="bike22" type="bike_bicycle" depart="2.19" departLane="best" departSpeed="max" from="-933742462" to="-91830746#4"/>
    <trip id="bike23" type="bike_bicycle" depart="2.29" departLane="best" from="1103029814#1" to="29221970#4"/>
    <trip id="bike24" type="bike_bicycle" depart="2.39" departLane="best" from="173591850" to="-245146540"/>
    <trip id="bike25" type="bike_bicycle" depart="2.49" departLane="best" departSpeed="max" from="794665138" to="679147173#1"/>
    <trip id="bike26" type="bike_bicycle" depart="2.59" departLane="best" from="-621090740#1" to="-146694567#1"/>
    <trip id="bike27" type="bike_bicycle" depart="2.69" departLane="best" from="-156129832#1" to="-1152843005"/>
    <trip id="bike28" type="bike_bicycle" depart="2.79" departLane="best" from="-151355770#1" to="538163308"/>
    <trip id="bike29" type="bike_bicycle" depart="2.89" departLane="best" departSpeed="max" from="5066077#0" to="-183532951#4"/>
    <trip id="bike30" type="bike_bicycle" depart="2.99" departLane="best" departSpeed="max" from="104950021#0" to="156577192"/>
    <trip id="bike31" type="bike_bicycle" depart="3.09" departLane="best" from="-35260366#3" to="669869472#1"/>
    <trip id="bike32" type="bike_bicycle" depart="3.19" departLane="best" from="97934715#2" to="28421362"/>
    <trip id="bike33" type="bike_bicycle" depart="3.29" departLane="best" from="-5025171#0" to="48990236#0"/>
    <trip id="bike35" type="bike_bicycle" depart="3.49" departLane="best" from="157030860#1" to="-934142307"/>
    <trip id="bike36" type="bike_bicycle" depart="3.59" departLane="best" from="-91631981#1" to="1082153455#1"/>
    <trip id="bike37" type="bike_bicycle" depart="3.69" departLane="best" departSpeed="max" from="709158549#0" to="-5050342"/>
    <trip id="bike38" type="bike_bicycle" depart="3.78" departLane="best" from="30759009#1" to="104950906#3"/>
    <trip id="bike39" type="bike_bicycle" depart="3.88" departLane="best" departSpeed="max" from="-928892277" to="773642838#0"/>
    <trip id="bike40" type="bike_bicycle" depart="3.98" departLane="best" from="151702361#1" to="-142868256#0"/>
    <trip id="bike42" type="bike_bicycle" depart="4.18" departLane="best" from="1076080916#5" to="-4350726#0"/>
    <trip id="bike43" type="bike_bicycle" depart="4.28" departLane="best" departSpeed="max" from="-902587575" to="-14710577#1"/>
    <trip id="bike44" type="bike_bicycle" depart="4.38" departLane="best" from="93407544" to="-932543811"/>
    <trip id="bike45" type="bike_bicycle" depart="4.48" departLane="best" from="91828781#4" to="97934744"/>
    <trip id="bike46" type="bike_bicycle" depart="4.58" departLane="best" from="153524024" to="5031661#0"/>
    <trip id="bike47" type="bike_bicycle" depart="4.68" departLane="best" from="148656680#2" to="5105178#1"/>
    <trip id="bike48" type="bike_bicycle" depart="4.78" departLane="best" departSpeed="max" from="-143407962" to="-173591860"/>
    <trip id="bike49" type="bike_bicycle" depart="4.88" departLane="best" from="-259076344#2" to="91877297"/>
    <trip id="bike50" type="bike_bicycle" depart="4.98" departLane="best" departSpeed="max" from="-154429935" to="-30145667#1"/>
    <trip id="bike51" type="bike_bicycle" depart="5.08" departLane="best" from="-160877841#0" to="333015187#4"/>
    <trip id="bike52" type="bike_bicycle" depart="5.18" departLane="best" departSpeed="max" from="-5032226#1" to="-173592367"/>
    <trip id="bike53" type="bike_bicycle" depart="5.28" departLane="best" departSpeed="max" from="160877780#0" to="23959430#3"/>
    <trip id="bike55" type="bike_bicycle" depart="5.48" departLane="best" from="28296308#2" to="-157031038"/>
    <trip id="bike56" type="bike_bicycle" depart="5.58" departLane="best" from="153309661#0" to="1075091951#0"/>
    <trip id="bike57" type="bike_bicycle" depart="5.68" departLane="best" from="813394292#1" to="859499809"/>
    <trip id="bike58" type="bike_bicycle" depart="5.78" departLane="best" from="-876574583#1" to="27258967"/>
    <trip id="bike59" type="bike_bicycle" depart="5.88" departLane="best" departSpeed="max" from="2667105" to="-1066417870#0"/>
    <trip id="bike60" type="bike_bicycle" depart="5.98" departLane="best" from="-592211391#1" to="62282935#24"/>
    <trip id="bike61" type="bike_bicycle" depart="6.08" departLane="best" departSpeed="max" from="-207897234#1" to="-170533775#0"/>
    <trip id="bike62" type="bike_bicycle" depart="6.18" departLane="best" departSpeed="max" from="107720045" to="894207538"/>
    <trip id="bike63" type="bike_bicycle" depart="6.27" departLane="best" from="-91631981#1" to="-561945929#2"/>
    <trip id="bike64" type="bike_bicycle" depart="6.37" departLane="best" from="-879177024#1" to="156195633#3"/>
    <trip id="bike65" type="bike_bicycle" depart="6.47" departLane="best" from="23379713" to="180206095#0"/>
    <trip id="bike66" type="bike_bicycle" depart="6.57" departLane="best" from="62282935#4" to="890073617"/>
    <trip id="bike68" type="bike_bicycle" depart="6.77" departLane="best" from="-245320433#1" to="904980036"/>
    <trip id="bike69" type="bike_bicycle" depart="6.87" departLane="best" from="720222840#1" to="932821834"/>
    <trip id="bike70" type="bike_bicycle" depart="6.97" departLane="best" departSpeed="max" from="-1099972017#1" to="5049565#4"/>
    <trip id="bike71" type="bike_bicycle" depart="7.07" departLane="best" from="-693152279" to="90963944#1"/>
    <trip id="bike73" type="bike_bicycle" depart="7.27" departLane="best" from="554919463#1" to="-160877856#0"/>
    <trip id="bike75" type="bike_bicycle" depart="7.47" departLane="best" from="-93308260" to="-154078248#4"/>
    <trip id="bike76" type="bike_bicycle" depart="7.57" departLane="best" from="-92367102#0" to="-29221966"/>
    <trip id="bike78" type="bike_bicycle" depart="7.77" departLane="best" departSpeed="max" from="47898960#0" to="674005498#0"/>
    <trip id="bike79" type="bike_bicycle" depart="7.87" departLane="best" from="173448932#4" to="142870244"/>
    <trip id="bike80" type="bike_bicycle" depart="7.97" departLane="best" departSpeed="max" from="-894452737" to="166104875#1"/>
    <trip id="bike81" type="bike_bicycle" depart="8.07" departLane="best" from="-5050868#0" to="48386508#5"/>
    <trip id="bike82" type="bike_bicycle" depart="8.17" departLane="best" from="5033045#4" to="318880258"/>
    <trip id="bike83" type="bike_bicycle" depart="8.27" departLane="best" from="-637451719#2" to="709146949#0"/>
    <trip id="bike84" type="bike_bicycle" depart="8.37" departLane="best" departSpeed="max" from="-92837329#1" to="-434899698#2"/>
    <trip id="bike86" type="bike_bicycle" depart="8.57" departLane="best" from="564298109#21" to="-28295444#2"/>
    <trip id="bike87" type="bike_bicycle" depart="8.67" departLane="best" from="225366339#1" to="-800610539"/>
    <trip id="bike89" type="bike_bicycle" depart="8.86" departLane="best" from="-347971599#0" to="-1110022279"/>
    <trip id="bike90" type="bike_bicycle" depart="8.96" departLane="best" from="-5041588#3" to="-109984885#3"/>
    <trip id="bike91" type="bike_bicycle" depart="9.06" departLane="best" from="-689253509#1" to="-153524025"/>
    <trip id="bike92" type="bike_bicycle" depart="9.16" departLane="best" from="-320122340#0" to="4203381"/>
    <trip id="bike93" type="bike_bicycle" depart="9.26" departLane="best" from="1086793553" to="-5047162#0"/>
    <trip id="bike94" type="bike_bicycle" depart="9.36" departLane="best" from="27259031#1" to="111987021#2"/>
    <trip id="bike95" type="bike_bicycle" depart="9.46" departLane="best" from="28394283#0" to="918582251#1"/>
    <trip id="bike96" type="bike_bicycle" depart="9.56" departLane="best" from="-1219934174#0" to="142868238#3"/>
    <trip id="bike97" type="bike_bicycle" depart="9.66" departLane="best" from="-861271373#0" to="22732423#0"/>
    <trip id="bike98" type="bike_bicycle" depart="9.76" departLane="best" from="-4245548#1" to="1260549640"/>
    <trip id="bike99" type="bike_bicycle" depart="9.86" departLane="best" from="642405979#2" to="156307490#2"/>
    <trip id="bike100" type="bike_bicycle" depart="9.96" departLane="best" from="868491163#0" to="5065386#3"/>
    <trip id="bike101" type="bike_bicycle" depart="10.06" departLane="best" from="-5042374#0" to="-279664081#2"/>
    <trip id="bike102" type="bike_bicycle" depart="10.16" departLane="best" from="5066075#1" to="149972717#3"/>
    <trip id="bike104" type="bike_bicycle" depart="10.36" departLane="best" from="5030700" to="40723055"/>
    <trip id="bike105" type="bike_bicycle" depart="10.46" departLane="best" from="-363072722#3" to="-150898544"/>
    <trip id="bike106" type="bike_bicycle" depart="10.56" departLane="best" from="-90969697#1" to="-156129754#2"/>
    <trip id="bike107" type="bike_bicycle" depart="10.66" departLane="best" from="-91215074#0" to="-40130609#2"/>
    <trip id="bike108" type="bike_bicycle" depart="10.76" departLane="best" departSpeed="max" from="-893613197#1" to="1059655425#1"/>
    <trip id="bike109" type="bike_bicycle" depart="10.86" departLane="best" from="-834008920" to="5192964#10"/>
    <trip id="bike110" type="bike_bicycle" depart="10.96" departLane="best" from="-4472731#3" to="-47899015"/>
    <trip id="bike111" type="bike_bicycle" depart="11.06" departLane="best" departSpeed="max" from="-705738192#3" to="34883545#0"/>
    <trip id="bike112" type="bike_bicycle" depart="11.16" departLane="best" from="9868571#4" to="-181986576#3"/>
    <trip id="bike113" type="bike_bicycle" depart="11.25" departLane="best" from="-221328457" to="1076889081"/>
    <trip id="bike114" type="bike_bicycle" depart="11.35" departLane="best" from="-404567119#1" to="-72657979#0"/>
    <trip id="bike115" type="bike_bicycle" depart="11.45" departLane="best" departSpeed="max" from="998377333" to="-868491161#0"/>
    <trip id="bike116" type="bike_bicycle" depart="11.55" departLane="best" from="251222956#4" to="5194967#2"/>
    <trip id="bike118" type="bike_bicycle" depart="11.75" departLane="best" from="28045821#3" to="225358523#0"/>
    <trip id="bike122" type="bike_bicycle" depart="12.15" departLane="best" from="91830746#3" to="-91583588#2"/>
    <trip id="bike125" type="bike_bicycle" depart="12.45" departLane="best" from="689251938#3" to="656458000#4"/>
    <trip id="bike126" type="bike_bicycle" depart="12.55" departLane="best" from="367009556#0" to="-961323605#1"/>
    <trip id="bike127" type="bike_bicycle" depart="12.65" departLane="best" departSpeed="max" from="-533359132" to="629149878#1"/>
    <trip id="bike128" type="bike_bicycle" depart="12.75" departLane="best" from="14438744#1" to="1139067988"/>
    <trip id="bike129" type="bike_bicycle" depart="12.85" departLane="best" departSpeed="max" from="-531759652" to="724471312#1"/>
    <trip id="bike130" type="bike_bicycle" depart="12.95" departLane="best" from="69022973" to="29478230#0"/>
    <trip id="bike131" type="bike_bicycle" depart="13.05" departLane="best" departSpeed="max" from="-40723031" to="584788775#2"/>
    <trip id="bike133" type="bike_bicycle" depart="13.25" departLane="best" from="156129831#0" to="5032064#4"/>
    <trip id="bike134" type="bike_bicycle" depart="13.35" departLane="best" from="157030855#10" to="1095861509"/>
    <trip id="bike136" type="bike_bicycle" depart="13.55" departLane="best" from="29547589#0" to="4473606#1"/>
    <trip id="bike137" type="bike_bicycle" depart="13.65" departLane="best" from="-28829850#0" to="-1077724024"/>
    <trip id="bike140" type="bike_bicycle" depart="13.94" departLane="best" from="1006117516" to="-992678679"/>
    <trip id="bike141" type="bike_bicycle" depart="14.04" departLane="best" from="62282930#1" to="916417021#1"/>
    <trip id="bike142" type="bike_bicycle" depart="14.14" departLane="best" from="153313737#3" to="259076344#0"/>
    <trip id="bike143" type="bike_bicycle" depart="14.24" departLane="best" from="155797296" to="-635697027#9"/>
    <trip id="bike145" type="bike_bicycle" depart="14.44" departLane="best" from="-279218335#1" to="-27258845#1"/>
    <trip id="bike146" type="bike_bicycle" depart="14.54" departLane="best" from="-1019458705" to="1063395980"/>
    <trip id="bike147" type="bike_bicycle" depart="14.64" departLane="best" from="35260940#1" to="1066490811"/>
    <trip id="bike148" type="bike_bicycle" depart="14.74" departLane="best" from="303264611" to="901605522#1"/>
    <trip id="bike149" type="bike_bicycle" depart="14.84" departLane="best" from="-555057874" to="245146471#5"/>
    <trip id="bike150" type="bike_bicycle" depart="14.94" departLane="best" departSpeed="max" from="-28045026#6" to="-653972631#0"/>
    <trip id="bike151" type="bike_bicycle" depart="15.04" departLane="best" departSpeed="max" from="-570407018#7" to="177413639"/>
    <trip id="bike152" type="bike_bicycle" depart="15.14" departLane="best" from="305495630#11" to="4270515#4"/>
    <trip id="bike153" type="bike_bicycle" depart="15.24" departLane="best" departSpeed="max" from="-669756025" to="-5050893"/>
    <trip id="bike154" type="bike_bicycle" depart="15.34" departLane="best" from="28421072#7" to="541980672"/>
    <trip id="bike155" type="bike_bicycle" depart="15.44" departLane="best" departSpeed="max" from="894248468" to="-294687262#12"/>
    <trip id="bike156" type="bike_bicycle" depart="15.54" departLane="best" from="-1078703650" to="-156919303#1"/>
    <trip id="bike158" type="bike_bicycle" depart="15.74" departLane="best" from="-69022980#0" to="40723037#4"/>
    <trip id="bike159" type="bike_bicycle" depart="15.84" departLane="best" from="583602940#3" to="156577207"/>
    <trip id="bike160" type="bike_bicycle" depart="15.94" departLane="best" departSpeed="max" from="-669998535" to="92837329#1"/>
    <trip id="bike161" type="bike_bicycle" depart="16.04" departLane="best" from="149827863" to="-91997663#1"/>
    <trip id="bike162" type="bike_bicycle" depart="16.14" departLane="best" from="-30074792#6" to="-892972014#1"/>
    <trip id="bike163" type="bike_bicycle" depart="16.23" departLane="best" from="-5050348#1" to="-377579017#6"/>
    <trip id="bike164" type="bike_bicycle" depart="16.33" departLane="best" from="151702294#2" to="902669928"/>
    <trip id="bike165" type="bike_bicycle" depart="16.43" departLane="best" departSpeed="max" from="-27258691" to="156577934"/>
    <trip id="bike166" type="bike_bicycle" depart="16.53" departLane="best" from="153309647" to="-157028527#1"/>
    <trip id="bike167" type="bike_bicycle" depart="16.63" departLane="best" departSpeed="max" from="93297126" to="5047155#13"/>
    <trip id="bike168" type="bike_bicycle" depart="16.73" departLane="best" from="894830224#1" to="-132908064#3"/>
    <trip id="bike169" type="bike_bicycle" depart="16.83" departLane="best" from="-91214816" to="-90969732#0"/>
    <trip id="bike172" type="bike_bicycle" depart="17.13" departLane="best" from="154839486#6" to="-693468503#1"/>
    <trip id="bike173" type="bike_bicycle" depart="17.23" departLane="best" from="30268073#1" to="4245521#1"/>
    <trip id="bike174" type="bike_bicycle" depart="17.33" departLane="best" from="580798529#0" to="-90969733#0"/>
    <trip id="bike175" type="bike_bicycle" depart="17.43" departLane="best" from="28045798" to="654846217#1"/>
    <trip id="bike176" type="bike_bicycle" depart="17.53" departLane="best" from="27258845#1" to="25068391#1"/>
    <trip id="bike177" type="bike_bicycle" depart="17.63" departLane="best" from="242854452#6" to="-927593236#1"/>
    <trip id="bike178" type="bike_bicycle" depart="17.73" departLane="best" from="-71484004#3" to="404567031#2"/>
    <trip id="bike179" type="bike_bicycle" depart="17.83" departLane="best" from="245320432#6" to="-72516245#1"/>
    <trip id="bike181" type="bike_bicycle" depart="18.03" departLane="best" from="150902114#2" to="27258957"/>
    <trip id="bike183" type="bike_bicycle" depart="18.23" departLane="best" from="156129752" to="579555605"/>
    <trip id="bike184" type="bike_bicycle" depart="18.33" departLane="best" from="282195487#4" to="155795256#1"/>
    <trip id="bike185" type="bike_bicycle" depart="18.43" departLane="best" from="-763219981#1" to="240096289"/>
    <trip id="bike186" type="bike_bicycle" depart="18.53" departLane="best" from="-5035967#0" to="894523403"/>
    <trip id="bike187" type="bike_bicycle" depart="18.63" departLane="best" from="5050380#1" to="-5104857#2"/>
    <trip id="bike189" type="bike_bicycle" depart="18.82" departLane="best" from="22761117#3" to="-93303400#0"/>
    <trip id="bike191" type="bike_bicycle" depart="19.02" departLane="best" from="156307490#6" to="-163844201#4"/>
    <trip id="bike193" type="bike_bicycle" depart="19.22" departLane="best" departSpeed="max" from="1255692399" to="224814529"/>
    <trip id="bike194" type="bike_bicycle" depart="19.32" departLane="best" from="109371341#1" to="894127926"/>
    <trip id="bike195" type="bike_bicycle" depart="19.42" departLane="best" from="-564374014#2" to="591287240#3"/>
    <trip id="bike196" type="bike_bicycle" depart="19.52" departLane="best" from="22731149#4" to="241159102#1"/>
    <trip id="bike197" type="bike_bicycle" depart="19.62" departLane="best" from="-29221958#2" to="5033043#0"/>
    <trip id="bike199" type="bike_bicycle" depart="19.82" departLane="best" from="49744486#2" to="-156919243#2"/>
    <trip id="bike200" type="bike_bicycle" depart="19.92" departLane="best" departSpeed="max" from="-28296326" to="-196802411#1"/>
    <trip id="bike201" type="bike_bicycle" depart="20.02" departLane="best" from="630378626#1" to="1134389921"/>
    <trip id="bike203" type="bike_bicycle" depart="20.22" departLane="best" from="4444237#2" to="93309531#0"/>
    <trip id="bike204" type="bike_bicycle" depart="20.32" departLane="best" from="-28421079#3" to="173592372#4"/>
    <trip id="bike205" type="bike_bicycle" depart="20.42" departLane="best" from="-154837034#0" to="-894805938#2"/>
    <trip id="bike207" type="bike_bicycle" depart="20.62" departLane="best" from="-590168211#1" to="-91852980"/>
    <trip id="bike209" type="bike_bicycle" depart="20.82" departLane="best" from="28296096#0" to="5065282#3"/>
    <trip id="bike210" type="bike_bicycle" depart="20.92" departLane="best" from="157206915#0" to="368175468"/>
    <trip id="bike211" type="bike_bicycle" depart="21.02" departLane="best" from="150876313#3" to="93308245#5"/>
    <trip id="bike212" type="bike_bicycle" depart="21.12" departLane="best" from="28045160#0" to="28049977#3"/>
    <trip id="bike213" type="bike_bicycle" depart="21.21" departLane="best" from="377579017#7" to="445079805#0"/>
    <trip id="bike215" type="bike_bicycle" depart="21.41" departLane="best" from="-1019562996#1" to="766029420"/>
    <trip id="bike216" type="bike_bicycle" depart="21.51" departLane="best" from="5047490#0" to="28421365"/>
    <trip id="bike217" type="bike_bicycle" depart="21.61" departLane="best" from="-28296096#2" to="-142871354#2"/>
    <trip id="bike218" type="bike_bicycle" depart="21.71" departLane="best" from="5032247#4" to="151353942"/>
    <trip id="bike219" type="bike_bicycle" depart="21.81" departLane="best" from="1238846135" to="1074882013"/>
    <trip id="bike220" type="bike_bicycle" depart="21.91" departLane="best" from="303140678#1" to="1169932789#2"/>
    <trip id="bike221" type="bike_bicycle" depart="22.01" departLane="best" from="892231284#1" to="-153524078#1"/>
    <trip id="bike222" type="bike_bicycle" depart="22.11" departLane="best" from="225366343#1" to="156307542"/>
    <trip id="bike223" type="bike_bicycle" depart="22.21" departLane="best" departSpeed="max" from="172876921#0" to="-157206938"/>
    <trip id="bike224" type="bike_bicycle" depart="22.31" departLane="best" from="-24956268#6" to="555149822#0"/>
    <trip id="bike225" type="bike_bicycle" depart="22.41" departLane="best" departSpeed="max" from="-93309563#1" to="-5031667"/>
    <trip id="bike226" type="bike_bicycle" depart="22.51" departLane="best" from="-886952306#4" to="-245146371#5"/>
    <trip id="bike227" type="bike_bicycle" depart="22.61" departLane="best" departSpeed="max" from="894900840" to="151702327"/>
    <trip id="bike228" type="bike_bicycle" depart="22.71" departLane="best" from="157030852#1" to="5049920"/>
    <trip id="bike229" type="bike_bicycle" depart="22.81" departLane="best" from="581029733#1" to="157030405#2"/>
    <trip id="bike231" type="bike_bicycle" depart="23.01" departLane="best" from="5041487#0" to="813394289#21"/>
    <trip id="bike232" type="bike_bicycle" depart="23.11" departLane="best" departSpeed="max" from="-160877802#6" to="703809851#1"/>
    <trip id="bike233" type="bike_bicycle" depart="23.21" departLane="best" from="156577210#0" to="626776203#1"/>
    <trip id="bike235" type="bike_bicycle" depart="23.41" departLane="best" departSpeed="max" from="603755039#0" to="22738620#4"/>
    <trip id="bike236" type="bike_bicycle" depart="23.51" departLane="best" from="-23379799#0" to="-1123771291#0"/>
    <trip id="bike237" type="bike_bicycle" depart="23.61" departLane="best" from="-5194946#2" to="-29243921#0"/>
    <trip id="bike238" type="bike_bicycle" depart="23.70" departLane="best" from="-902567884#0" to="-22694436#6"/>
    <trip id="bike239" type="bike_bicycle" depart="23.80" departLane="best" from="5035856#1" to="-4444269#3"/>
    <trip id="bike240" type="bike_bicycle" depart="23.90" departLane="best" from="-91582761#1" to="-849272676#1"/>
    <trip id="bike241" type="bike_bicycle" depart="24.00" departLane="best" from="-156129785#1" to="143407945#0"/>
    <trip id="bike243" type="bike_bicycle" depart="24.20" departLane="best" from="5047155#7" to="1063363017"/>
    <trip id="bike244" type="bike_bicycle" depart="24.30" departLane="best" from="-91851209" to="571115539#0"/>
    <trip id="bike245" type="bike_bicycle" depart="24.40" departLane="best" from="29222002#0" to="-1154701728#2"/>
    <trip id="bike246" type="bike_bicycle" depart="24.50" departLane="best" from="35356678#0" to="1242129168"/>
    <trip id="bike247" type="bike_bicycle" depart="24.60" departLane="best" from="377579028" to="-92673168"/>
    <trip id="bike248" type="bike_bicycle" depart="24.70" departLane="best" from="-28049080" to="142868245#1"/>
    <trip id="bike249" type="bike_bicycle" depart="24.80" departLane="best" from="45861147#3" to="652136088#0"/>
    <trip id="bike250" type="bike_bicycle" depart="24.90" departLane="best" from="-167797662#4" to="538141829"/>
    <trip id="bike251" type="bike_bicycle" depart="25.00" departLane="best" from="27258981#1" to="29043945#3"/>
    <trip id="bike252" type="bike_bicycle" depart="25.10" departLane="best" from="5047138#7" to="538141812#1"/>
    <trip id="bike253" type="bike_bicycle" depart="25.20" departLane="best" from="222840545" to="-243476207#0"/>
    <trip id="bike254" type="bike_bicycle" depart="25.30" departLane="best" from="-150900411#1" to="1007213248"/>
    <trip id="bike255" type="bike_bicycle" depart="25.40" departLane="best" from="-592027547#4" to="-556133708"/>
    <trip id="bike256" type="bike_bicycle" depart="25.50" departLane="best" from="-142870273#0" to="-131157970"/>
    <trip id="bike257" type="bike_bicycle" depart="25.60" departLane="best" from="-693468129#0" to="-22797833#5"/>
    <trip id="bike258" type="bike_bicycle" depart="25.70" departLane="best" departSpeed="max" from="1139119283#0" to="1077599790#1"/>
    <trip id="bike259" type="bike_bicycle" depart="25.80" departLane="best" from="-669073570#1" to="-110013529#13"/>
    <trip id="bike262" type="bike_bicycle" depart="26.10" departLane="best" from="-1124318621#0" to="-28296188#1"/>
    <trip id="bike263" type="bike_bicycle" depart="26.19" departLane="best" from="50430671#1" to="97934730#2"/>
    <trip id="bike264" type="bike_bicycle" depart="26.29" departLane="best" from="92673145#0" to="150876474#4"/>
    <trip id="bike265" type="bike_bicycle" depart="26.39" departLane="best" from="-27258952#1" to="-895010056"/>
    <trip id="bike266" type="bike_bicycle" depart="26.49" departLane="best" departSpeed="max" from="-150876449#1" to="-157030386#0"/>
    <trip id="bike267" type="bike_bicycle" depart="26.59" departLane="best" from="-29221997#5" to="571115571#3"/>
    <trip id="bike268" type="bike_bicycle" depart="26.69" departLane="best" from="-4442133#2" to="29222039#1"/>
    <trip id="bike269" type="bike_bicycle" depart="26.79" departLane="best" from="-885544916#4" to="842266840"/>
    <trip id="bike270" type="bike_bicycle" depart="26.89" departLane="best" departSpeed="max" from="-693455153" to="-173549478#1"/>
    <trip id="bike271" type="bike_bicycle" depart="26.99" departLane="best" from="920923389" to="4249923#1"/>
    <trip id="bike272" type="bike_bicycle" depart="27.09" departLane="best" departSpeed="max" from="-894824051" to="183679867"/>
    <trip id="bike273" type="bike_bicycle" depart="27.19" departLane="best" from="90969718#2" to="665515500#3"/>
    <trip id="bike274" type="bike_bicycle" depart="27.29" departLane="best" from="637447791" to="5049917"/>
    <trip id="bike275" type="bike_bicycle" depart="27.39" departLane="best" from="-242782286#6" to="-932814887"/>
    <trip id="bike276" type="bike_bicycle" depart="27.49" departLane="best" from="29082289#2" to="-4442124#3"/>
    <trip id="bike277" type="bike_bicycle" depart="27.59" departLane="best" from="157812295#1" to="-556133721#1"/>
    <trip id="bike279" type="bike_bicycle" depart="27.79" departLane="best" from="578775455" to="-28045789#3"/>
    <trip id="bike280" type="bike_bicycle" depart="27.89" departLane="best" from="143407957" to="-665515494"/>
    <trip id="bike281" type="bike_bicycle" depart="27.99" departLane="best" from="91581338#1" to="93410847#1"/>
    <trip id="bike282" type="bike_bicycle" depart="28.09" departLane="best" from="-5047455#6" to="28049530#4"/>