<?xml version="1.0" encoding="UTF-8"?>

<!-- generated on 2024-03-16 10:02:30.765706 by osmWebWizard.py v1_19_0+0000-baa66a0f364
<configuration>
    <net-file value="C:\Users\MartinezKyle_\2024-03-16-09-09-15\osm.net.xml.gz"/>
    <output-trip-file value="C:\Users\MartinezKyle_\2024-03-16-09-09-15\osm.motorcycle.trips.xml"/>
    <route-file value="C:\Users\MartinezKyle_\2024-03-16-09-09-15\osm.motorcycle.rou.xml"/>
    <prefix value="motorcycle"/>
    <trip-attributes value="departLane=&quot;best&quot;"/>
    <fringe-start-attributes value="departSpeed=&quot;max&quot;"/>
    <vehicle-class value="motorcycle"/>
    <fringe-factor value="2"/>
    <vclass value="motorcycle"/>
    <via-edge-types value="highway.motorway,highway.motorway_link,highway.trunk_link,highway.primary_link,highway.secondary_link,highway.tertiary_link"/>
    <max-distance value="1200.0"/>
    <remove-loops value="True"/>
    <validate value="True"/>
    <insertion-density value="4.0"/>
</configuration>
-->

<!-- generated on 2024-03-16 10:01:25 by Eclipse SUMO duarouter Version 1.19.0
<configuration xmlns:xsi="http://www.w3.org/2001/XMLSchema-instance" xsi:noNamespaceSchemaLocation="http://sumo.dlr.de/xsd/duarouterConfiguration.xsd">

    <input>
        <net-file value="C:\Users\MartinezKyle_\2024-03-16-09-09-15\osm.net.xml.gz"/>
        <route-files value="C:\Users\MartinezKyle_\2024-03-16-09-09-15\osm.motorcycle.trips.xml"/>
    </input>

    <output>
        <output-file value="C:\Users\MartinezKyle_\2024-03-16-09-09-15\osm.motorcycle.trips.xml.tmp"/>
        <alternatives-output value="NUL"/>
        <write-trips value="true"/>
    </output>

    <processing>
        <remove-loops value="true"/>
    </processing>

    <time>
        <begin value="0.0"/>
        <end value="3600.0"/>
    </time>

    <report>
        <no-warnings value="true"/>
        <ignore-errors value="true"/>
        <no-step-log value="true"/>
    </report>

</configuration>
-->

<routes xmlns:xsi="http://www.w3.org/2001/XMLSchema-instance" xsi:noNamespaceSchemaLocation="http://sumo.dlr.de/xsd/routes_file.xsd">
    <vType id="motorcycle_motorcycle" vClass="motorcycle"/>
    <trip id="motorcycle0" type="motorcycle_motorcycle" depart="0.00" departLane="best" from="563660950" to="5030682#0"/>
    <trip id="motorcycle1" type="motorcycle_motorcycle" depart="0.17" departLane="best" from="-158061875#1" to="-5192396#0"/>
    <trip id="motorcycle2" type="motorcycle_motorcycle" depart="0.33" departLane="best" from="93309813#4" to="-157032837"/>
    <trip id="motorcycle3" type="motorcycle_motorcycle" depart="0.50" departLane="best" from="827434409" to="1067227849#2"/>
    <trip id="motorcycle4" type="motorcycle_motorcycle" depart="0.67" departLane="best" from="1124908493#3" to="-5035195#2"/>
    <trip id="motorcycle5" type="motorcycle_motorcycle" depart="0.83" departLane="best" from="-52324883#2" to="15868216#0"/>
    <trip id="motorcycle6" type="motorcycle_motorcycle" depart="1.00" departLane="best" departSpeed="max" from="-864646197#2" to="-153750459#1"/>
    <trip id="motorcycle7" type="motorcycle_motorcycle" depart="1.17" departLane="best" from="579434325#2" to="-91631735#2"/>
    <trip id="motorcycle8" type="motorcycle_motorcycle" depart="1.33" departLane="best" from="91134749#3" to="30074733#1"/>
    <trip id="motorcycle9" type="motorcycle_motorcycle" depart="1.50" departLane="best" from="251730989#3" to="107457729"/>
    <trip id="motorcycle10" type="motorcycle_motorcycle" depart="1.67" departLane="best" from="665787419#0" to="154078820#2"/>
    <trip id="motorcycle11" type="motorcycle_motorcycle" depart="1.83" departLane="best" from="-665787540#1" to="-131167656#2"/>
    <trip id="motorcycle12" type="motorcycle_motorcycle" depart="2.00" departLane="best" from="151490842" to="111987030#6"/>
    <trip id="motorcycle13" type="motorcycle_motorcycle" depart="2.16" departLane="best" from="-1029330784" to="101156857"/>
    <trip id="motorcycle14" type="motorcycle_motorcycle" depart="2.33" departLane="best" from="1106498488" to="-156923883#0"/>
    <trip id="motorcycle15" type="motorcycle_motorcycle" depart="2.50" departLane="best" from="177410122#5" to="923583121#0"/>
    <trip id="motorcycle16" type="motorcycle_motorcycle" depart="2.66" departLane="best" from="894285801" to="142868271#4"/>
    <trip id="motorcycle17" type="motorcycle_motorcycle" depart="2.83" departLane="best" from="772054895#0" to="721565004#1"/>
    <trip id="motorcycle18" type="motorcycle_motorcycle" depart="3.00" departLane="best" from="-91582442#3" to="90967337#8"/>
    <trip id="motorcycle19" type="motorcycle_motorcycle" depart="3.16" departLane="best" from="279218336" to="603755038#2"/>
    <trip id="motorcycle20" type="motorcycle_motorcycle" depart="3.33" departLane="best" from="-5032059#4" to="892573831"/>
    <trip id="motorcycle21" type="motorcycle_motorcycle" depart="3.50" departLane="best" from="-366887037" to="411716606#1"/>
    <trip id="motorcycle22" type="motorcycle_motorcycle" depart="3.66" departLane="best" from="-691357309#0" to="104949990#0"/>
    <trip id="motorcycle23" type="motorcycle_motorcycle" depart="3.83" departLane="best" departSpeed="max" from="271145971" to="-4479710#49"/>
    <trip id="motorcycle24" type="motorcycle_motorcycle" depart="4.00" departLane="best" from="651079976#2" to="-5035503#0"/>
    <trip id="motorcycle25" type="motorcycle_motorcycle" depart="4.16" departLane="best" from="-631571431#1" to="1092859411#0"/>
    <trip id="motorcycle26" type="motorcycle_motorcycle" depart="4.33" departLane="best" from="-5035958" to="-93411308"/>
    <trip id="motorcycle27" type="motorcycle_motorcycle" depart="4.50" departLane="best" from="-60948808#2" to="5132716#0"/>
    <trip id="motorcycle28" type="motorcycle_motorcycle" depart="4.66" departLane="best" from="-757988727#2" to="-156577173#1"/>
    <trip id="motorcycle29" type="motorcycle_motorcycle" depart="4.83" departLane="best" from="5049599#9" to="-5049582#1"/>
    <trip id="motorcycle30" type="motorcycle_motorcycle" depart="5.00" departLane="best" from="91138359#2" to="240381727"/>
    <trip id="motorcycle31" type="motorcycle_motorcycle" depart="5.16" departLane="best" departSpeed="max" from="-927073545" to="1124320343#5"/>
    <trip id="motorcycle32" type="motorcycle_motorcycle" depart="5.33" departLane="best" from="251523745#1" to="-28049812#0"/>
    <trip id="motorcycle33" type="motorcycle_motorcycle" depart="5.50" departLane="best" from="157030848#2" to="48537991#3"/>
    <trip id="motorcycle34" type="motorcycle_motorcycle" depart="5.66" departLane="best" from="-563380814#2" to="-545231790#1"/>
    <trip id="motorcycle35" type="motorcycle_motorcycle" depart="5.83" departLane="best" from="-167797662#0" to="-27212931#2"/>
    <trip id="motorcycle36" type="motorcycle_motorcycle" depart="5.99" departLane="best" departSpeed="max" from="-902546109" to="583653428"/>
    <trip id="motorcycle37" type="motorcycle_motorcycle" depart="6.16" departLane="best" from="886952302#0" to="-887486268#0"/>
    <trip id="motorcycle38" type="motorcycle_motorcycle" depart="6.33" departLane="best" departSpeed="max" from="156919292" to="-279664075"/>
    <trip id="motorcycle39" type="motorcycle_motorcycle" depart="6.49" departLane="best" from="1103029849" to="-158326571#3"/>
    <trip id="motorcycle40" type="motorcycle_motorcycle" depart="6.66" departLane="best" from="1124335205" to="-158180755#8"/>
    <trip id="motorcycle41" type="motorcycle_motorcycle" depart="6.83" departLane="best" departSpeed="max" from="29222019#0" to="-91848969"/>
    <trip id="motorcycle42" type="motorcycle_motorcycle" depart="6.99" departLane="best" departSpeed="max" from="-932543451" to="-101156495#0"/>
    <trip id="motorcycle43" type="motorcycle_motorcycle" depart="7.16" departLane="best" from="245146159#2" to="-25052680#1"/>
    <trip id="motorcycle44" type="motorcycle_motorcycle" depart="7.33" departLane="best" departSpeed="max" from="142868259" to="142870681"/>
    <trip id="motorcycle45" type="motorcycle_motorcycle" depart="7.49" departLane="best" from="-158180757#9" to="158180761#3"/>
    <trip id="motorcycle46" type="motorcycle_motorcycle" depart="7.66" departLane="best" from="-157028527#4" to="-5036012#1"/>
    <trip id="motorcycle47" type="motorcycle_motorcycle" depart="7.83" departLane="best" departSpeed="max" from="144886899#0" to="-23379837#2"/>
    <trip id="motorcycle48" type="motorcycle_motorcycle" depart="7.99" departLane="best" from="-28296179#1" to="-632036221#8"/>
    <trip id="motorcycle49" type="motorcycle_motorcycle" depart="8.16" departLane="best" from="91581377#0" to="91582407#1"/>
    <trip id="motorcycle50" type="motorcycle_motorcycle" depart="8.49" departLane="best" from="4444264#0" to="-4450522#7"/>
    <trip id="motorcycle51" type="motorcycle_motorcycle" depart="8.66" departLane="best" from="574969670#5" to="545223690#1"/>
    <trip id="motorcycle52" type="motorcycle_motorcycle" depart="8.83" departLane="best" departSpeed="max" from="109984873" to="5065399#1"/>
    <trip id="motorcycle53" type="motorcycle_motorcycle" depart="8.99" departLane="best" from="-29478281#5" to="-29699279#6"/>
    <trip id="motorcycle54" type="motorcycle_motorcycle" depart="9.16" departLane="best" departSpeed="max" from="-183550885#1" to="-90108599#2"/>
    <trip id="motorcycle55" type="motorcycle_motorcycle" depart="9.33" departLane="best" from="4450525" to="-183540514"/>
    <trip id="motorcycle56" type="motorcycle_motorcycle" depart="9.49" departLane="best" from="-4914668#0" to="173448931#8"/>
    <trip id="motorcycle57" type="motorcycle_motorcycle" depart="9.66" departLane="best" departSpeed="max" from="-892573830" to="156129790#1"/>
    <trip id="motorcycle58" type="motorcycle_motorcycle" depart="9.82" departLane="best" departSpeed="max" from="-545223687" to="-570686579#0"/>
    <trip id="motorcycle60" type="motorcycle_motorcycle" depart="10.16" departLane="best" from="-157207957#0" to="-894456397#0"/>
    <trip id="motorcycle61" type="motorcycle_motorcycle" depart="10.32" departLane="best" from="-240381174#0" to="91134756"/>
    <trip id="motorcycle62" type="motorcycle_motorcycle" depart="10.49" departLane="best" from="-90118965" to="-28295807#5"/>
    <trip id="motorcycle63" type="motorcycle_motorcycle" depart="10.66" departLane="best" departSpeed="max" from="143729204" to="632046519"/>
    <trip id="motorcycle64" type="motorcycle_motorcycle" depart="10.82" departLane="best" from="-183679865#9" to="183670457#1"/>
    <trip id="motorcycle65" type="motorcycle_motorcycle" depart="10.99" departLane="best" from="5050380#1" to="5049907"/>
    <trip id="motorcycle66" type="motorcycle_motorcycle" depart="11.16" departLane="best" from="5035985#1" to="157028540#5"/>
    <trip id="motorcycle67" type="motorcycle_motorcycle" depart="11.32" departLane="best" from="1078234900#1" to="22694425#1"/>
    <trip id="motorcycle68" type="motorcycle_motorcycle" depart="11.49" departLane="best" from="-862549359#0" to="156923900"/>
    <trip id="motorcycle69" type="motorcycle_motorcycle" depart="11.66" departLane="best" from="244441662#15" to="-28050051#2"/>
    <trip id="motorcycle70" type="motorcycle_motorcycle" depart="11.82" departLane="best" from="-225358548" to="225366364#0"/>
    <trip id="motorcycle71" type="motorcycle_motorcycle" depart="11.99" departLane="best" from="5065695#5" to="4450523#1"/>
    <trip id="motorcycle72" type="motorcycle_motorcycle" depart="12.16" departLane="best" from="-669995388#0" to="669752186#3"/>
    <trip id="motorcycle73" type="motorcycle_motorcycle" depart="12.32" departLane="best" from="-99661875#0" to="5132660"/>
    <trip id="motorcycle74" type="motorcycle_motorcycle" depart="12.49" departLane="best" from="629149874#1" to="-180087584#0"/>
    <trip id="motorcycle75" type="motorcycle_motorcycle" depart="12.66" departLane="best" departSpeed="max" from="-278718446" to="28296111#0"/>
    <trip id="motorcycle76" type="motorcycle_motorcycle" depart="12.82" departLane="best" from="-544319553#5" to="-91138338#1"/>
    <trip id="motorcycle77" type="motorcycle_motorcycle" depart="12.99" departLane="best" from="894578008" to="-156919279#0"/>
    <trip id="motorcycle78" type="motorcycle_motorcycle" depart="13.16" departLane="best" from="-571115567#7" to="1164244752#0"/>
    <trip id="motorcycle79" type="motorcycle_motorcycle" depart="13.32" departLane="best" from="97935518#3" to="92673168"/>
    <trip id="motorcycle80" type="motorcycle_motorcycle" depart="13.49" departLane="best" from="669995391#1" to="-1162841533#0"/>
    <trip id="motorcycle81" type="motorcycle_motorcycle" depart="13.65" departLane="best" from="-169829687#3" to="100961288#1"/>
    <trip id="motorcycle82" type="motorcycle_motorcycle" depart="13.99" departLane="best" from="-158467737#0" to="-149977877#0"/>
    <trip id="motorcycle83" type="motorcycle_motorcycle" depart="14.15" departLane="best" from="23297285" to="153310457#0"/>
    <trip id="motorcycle84" type="motorcycle_motorcycle" depart="14.32" departLane="best" from="173549473#0" to="160877806#0"/>
    <trip id="motorcycle85" type="motorcycle_motorcycle" depart="14.49" departLane="best" from="153522745#3" to="-878419542#1"/>
    <trip id="motorcycle86" type="motorcycle_motorcycle" depart="14.65" departLane="best" from="5035308#2" to="-5032050#1"/>
    <trip id="motorcycle87" type="motorcycle_motorcycle" depart="14.82" departLane="best" from="28295507#40" to="-136053173"/>
    <trip id="motorcycle88" type="motorcycle_motorcycle" depart="14.99" departLane="best" from="161052131" to="1154175683#4"/>
    <trip id="motorcycle89" type="motorcycle_motorcycle" depart="15.15" departLane="best" from="684276925" to="1154175683#2"/>
    <trip id="motorcycle90" type="motorcycle_motorcycle" depart="15.32" departLane="best" from="824376555" to="16176658#3"/>
    <trip id="motorcycle91" type="motorcycle_motorcycle" depart="15.49" departLane="best" from="5031828#2" to="-46138709"/>
    <trip id="motorcycle92" type="motorcycle_motorcycle" depart="15.65" departLane="best" from="153187943#1" to="183673706#2"/>
    <trip id="motorcycle93" type="motorcycle_motorcycle" depart="15.82" departLane="best" departSpeed="max" from="-832949744#1" to="1059493988#1"/>
    <trip id="motorcycle94" type="motorcycle_motorcycle" depart="15.99" departLane="best" from="28295336" to="156577917#2"/>
    <trip id="motorcycle95" type="motorcycle_motorcycle" depart="16.15" departLane="best" from="91877258#1" to="-91877324#1"/>
    <trip id="motorcycle96" type="motorcycle_motorcycle" depart="16.32" departLane="best" from="130964195" to="50838029"/>
    <trip id="motorcycle97" type="motorcycle_motorcycle" depart="16.49" departLane="best" from="91138368#0" to="91582409#1"/>
    <trip id="motorcycle98" type="motorcycle_motorcycle" depart="16.65" departLane="best" from="28295981#1" to="28295583#5"/>
    <trip id="motorcycle99" type="motorcycle_motorcycle" depart="16.82" departLane="best" from="217104982#0" to="104949974#1"/>
    <trip id="motorcycle100" type="motorcycle_motorcycle" depart="16.99" departLane="best" from="-40130578#1" to="91848982#1"/>
    <trip id="motorcycle101" type="motorcycle_motorcycle" depart="17.15" departLane="best" from="1230336314" to="1227482590#1"/>
    <trip id="motorcycle102" type="motorcycle_motorcycle" depart="17.32" departLane="best" from="-91138370" to="-868989758#2"/>
    <trip id="motorcycle103" type="motorcycle_motorcycle" depart="17.48" departLane="best" from="878969375#3" to="91582407#2"/>
    <trip id="motorcycle104" type="motorcycle_motorcycle" depart="17.82" departLane="best" from="-177410237#3" to="157028933#1"/>
    <trip id="motorcycle105" type="motorcycle_motorcycle" depart="17.98" departLane="best" from="708763336#1" to="-28296139#3"/>
    <trip id="motorcycle106" type="motorcycle_motorcycle" depart="18.15" departLane="best" from="-1076086392#2" to="22738927#1"/>
    <trip id="motorcycle107" type="motorcycle_motorcycle" depart="18.32" departLane="best" from="30074743#1" to="-91138364#1"/>
    <trip id="motorcycle109" type="motorcycle_motorcycle" depart="18.82" departLane="best" from="-158180783#2" to="-148655597#1"/>
    <trip id="motorcycle110" type="motorcycle_motorcycle" depart="18.98" departLane="best" from="-5047137#1" to="167799120#0"/>
    <trip id="motorcycle111" type="motorcycle_motorcycle" depart="19.15" departLane="best" from="-111681638#2" to="5047160"/>
    <trip id="motorcycle112" type="motorcycle_motorcycle" depart="19.32" departLane="best" from="570686581#2" to="-91138375#5"/>
    <trip id="motorcycle113" type="motorcycle_motorcycle" depart="19.48" departLane="best" from="-5049586" to="5047171#2"/>
    <trip id="motorcycle114" type="motorcycle_motorcycle" depart="19.65" departLane="best" departSpeed="max" from="-684428659" to="561748189"/>
    <trip id="motorcycle115" type="motorcycle_motorcycle" depart="19.82" departLane="best" departSpeed="max" from="-93297120" to="-571427446#1"/>
    <trip id="motorcycle116" type="motorcycle_motorcycle" depart="19.98" departLane="best" from="28421218#0" to="-156919324#3"/>
    <trip id="motorcycle117" type="motorcycle_motorcycle" depart="20.15" departLane="best" from="-5031687#2" to="5032059#3"/>
    <trip id="motorcycle118" type="motorcycle_motorcycle" depart="20.32" departLane="best" from="5035855" to="5035723#1"/>
    <trip id="motorcycle119" type="motorcycle_motorcycle" depart="20.48" departLane="best" from="91631080#4" to="739482697#0"/>
    <trip id="motorcycle120" type="motorcycle_motorcycle" depart="20.65" departLane="best" from="651847025#1" to="1016445853#0"/>
    <trip id="motorcycle121" type="motorcycle_motorcycle" depart="20.98" departLane="best" from="775180746" to="-1066259119"/>
    <trip id="motorcycle122" type="motorcycle_motorcycle" depart="21.15" departLane="best" from="571115571#18" to="-880125193#1"/>
    <trip id="motorcycle123" type="motorcycle_motorcycle" depart="21.31" departLane="best" from="-29222017#2" to="93410910"/>
    <trip id="motorcycle124" type="motorcycle_motorcycle" depart="21.48" departLane="best" from="183691234#4" to="5047156#1"/>
    <trip id="motorcycle125" type="motorcycle_motorcycle" depart="21.65" departLane="best" from="-700241560#1" to="279218341#5"/>
    <trip id="motorcycle126" type="motorcycle_motorcycle" depart="21.81" departLane="best" departSpeed="max" from="156919264" to="157206918#3"/>
    <trip id="motorcycle127" type="motorcycle_motorcycle" depart="21.98" departLane="best" from="28296208#2" to="156577178#0"/>
    <trip id="motorcycle128" type="motorcycle_motorcycle" depart="22.15" departLane="best" from="-1069874346" to="14438129#0"/>
    <trip id="motorcycle129" type="motorcycle_motorcycle" depart="22.31" departLane="best" from="-156129773#0" to="5030686#5"/>
    <trip id="motorcycle130" type="motorcycle_motorcycle" depart="22.48" departLane="best" from="40130576#0" to="40130604#0"/>
    <trip id="motorcycle131" type="motorcycle_motorcycle" depart="22.65" departLane="best" from="5035513#1" to="-5035654"/>
    <trip id="motorcycle132" type="motorcycle_motorcycle" depart="22.81" departLane="best" from="4994786#4" to="-93309549#1"/>
    <trip id="motorcycle133" type="motorcycle_motorcycle" depart="22.98" departLane="best" from="143729235#0" to="-142868239#0"/>
    <trip id="motorcycle134" type="motorcycle_motorcycle" depart="23.15" departLane="best" from="4442124#2" to="934621031#2"/>
    <trip id="motorcycle135" type="motorcycle_motorcycle" depart="23.31" departLane="best" from="-1103680324#5" to="-177418485"/>
    <trip id="motorcycle136" type="motorcycle_motorcycle" depart="23.48" departLane="best" from="367045937#3" to="156307465#1"/>
    <trip id="motorcycle137" type="motorcycle_motorcycle" depart="23.65" departLane="best" from="690613620#1" to="-29222035"/>
    <trip id="motorcycle138" type="motorcycle_motorcycle" depart="23.81" departLane="best" departSpeed="max" from="107668162#0" to="-153522482#0"/>
    <trip id="motorcycle139" type="motorcycle_motorcycle" depart="23.98" departLane="best" from="-23371305" to="28421218#3"/>
    <trip id="motorcycle140" type="motorcycle_motorcycle" depart="24.15" departLane="best" from="-158180757#6" to="899099399#3"/>
    <trip id="motorcycle141" type="motorcycle_motorcycle" depart="24.31" departLane="best" from="93407109#0" to="90969753#2"/>
    <trip id="motorcycle142" type="motorcycle_motorcycle" depart="24.48" departLane="best" from="5031482#1" to="5035201#0"/>
    <trip id="motorcycle143" type="motorcycle_motorcycle" depart="24.65" departLane="best" from="-91875660#0" to="-91631030#3"/>
    <trip id="motorcycle144" type="motorcycle_motorcycle" depart="24.98" departLane="best" from="-878398217#3" to="-240383035#2"/>
    <trip id="motorcycle145" type="motorcycle_motorcycle" depart="25.14" departLane="best" from="-1185481466" to="-143729218#0"/>
    <trip id="motorcycle146" type="motorcycle_motorcycle" depart="25.31" departLane="best" from="1159373997" to="-28295981#1"/>
    <trip id="motorcycle147" type="motorcycle_motorcycle" depart="25.48" departLane="best" from="154839486#3" to="-684428653#1"/>
    <trip id="motorcycle148" type="motorcycle_motorcycle" depart="25.64" departLane="best" from="91851217#7" to="-91828784#0"/>
    <trip id="motorcycle149" type="motorcycle_motorcycle" depart="25.81" departLane="best" departSpeed="max" from="-935796901#1" to="5032065"/>
    <trip id="motorcycle150" type="motorcycle_motorcycle" depart="25.98" departLane="best" from="5066085#0" to="-97935534#2"/>
    <trip id="motorcycle151" type="motorcycle_motorcycle" depart="26.14" departLane="best" from="-318873430#1" to="168447173#1"/>
    <trip id="motorcycle152" type="motorcycle_motorcycle" depart="26.31" departLane="best" departSpeed="max" from="153522735#0" to="-894230430#0"/>
    <trip id="motorcycle153" type="motorcycle_motorcycle" depart="26.48" departLane="best" from="5030694#3" to="-156129770#4"/>
    <trip id="motorcycle154" type="motorcycle_motorcycle" depart="26.64" departLane="best" from="-5194759#1" to="-5192964#3"/>
    <trip id="motorcycle155" type="motorcycle_motorcycle" depart="26.81" departLane="best" from="-332370852#3" to="-16176619#3"/>
    <trip id="motorcycle156" type="motorcycle_motorcycle" depart="26.98" departLane="best" from="-91851219#2" to="1103029851"/>
    <trip id="motorcycle157" type="motorcycle_motorcycle" depart="27.14" departLane="best" from="-151356046#1" to="4444260"/>
    <trip id="motorcycle158" type="motorcycle_motorcycle" depart="27.31" departLane="best" from="14438700#1" to="936941682#0"/>
    <trip id="motorcycle159" type="motorcycle_motorcycle" depart="27.48" departLane="best" from="-5032065" to="5031664"/>
    <trip id="motorcycle160" type="motorcycle_motorcycle" depart="27.64" departLane="best" from="-90969696" to="156198385#0"/>
    <trip id="motorcycle162" type="motorcycle_motorcycle" depart="27.98" departLane="best" departSpeed="max" from="5050895" to="-5049696"/>
    <trip id="motorcycle163" type="motorcycle_motorcycle" depart="28.14" departLane="best" from="-27862967#6" to="-35938729#3"/>
    <trip id="motorcycle164" type="motorcycle_motorcycle" depart="28.31" departLane="best" from="-177418451#5" to="-177418482"/>
    <trip id="motorcycle165" type="motorcycle_motorcycle" depart="28.48" departLane="best" from="-5191559#0" to="28049159"/>
    <trip id="motorcycle166" type="motorcycle_motorcycle" depart="28.64" departLane="best" from="173549483#0" to="-23371339#3"/>
    <trip id="motorcycle167" type="motorcycle_motorcycle" depart="28.97" departLane="best" from="-5110049#10" to="845285788#2"/>
    <trip id="motorcycle168" type="motorcycle_motorcycle" depart="29.14" departLane="best" departSpeed="max" from="-156923908#2" to="5030668#1"/>
    <trip id="motorcycle169" type="motorcycle_motorcycle" depart="29.31" departLane="best" from="156129795#1" to="-5030717"/>
    <trip id="motorcycle170" type="motorcycle_motorcycle" depart="29.47" departLane="best" from="1065937104#0" to="-34545208#1"/>
    <trip id="motorcycle171" type="motorcycle_motorcycle" depart="29.64" departLane="best" from="-154077682#0" to="1150887950#0"/>
    <trip id="motorcycle172" type="motorcycle_motorcycle" depart="29.81" departLane="best" from="-96796483#3" to="1137057602#0"/>
    <trip id="motorcycle173" type="motorcycle_motorcycle" depart="29.97" departLane="best" departSpeed="max" from="-97802017" to="-14438744#1"/>
    <trip id="motorcycle174" type="motorcycle_motorcycle" depart="30.14" departLane="best" from="28295507#8" to="-50430670#0"/>
    <trip id="motorcycle175" type="motorcycle_motorcycle" depart="30.31" departLane="best" from="-92188729#3" to="-91662171#0"/>
    <trip id="motorcycle176" type="motorcycle_motorcycle" depart="30.47" departLane="best" from="28296312#2" to="753797085#1"/>
    <trip id="motorcycle177" type="motorcycle_motorcycle" depart="30.64" departLane="best" from="-4442111#1" to="887511844#4"/>
    <trip id="motorcycle178" type="motorcycle_motorcycle" depart="30.81" departLane="best" from="-28295507#34" to="142868239#2"/>
    <trip id="motorcycle179" type="motorcycle_motorcycle" depart="30.97" departLane="best" from="-91830740#1" to="-91134749#3"/>
    <trip id="motorcycle180" type="motorcycle_motorcycle" depart="31.31" departLane="best" from="868486384#0" to="177418475#3"/>
    <trip id="motorcycle181" type="motorcycle_motorcycle" depart="31.47" departLane="best" from="-5192399#0" to="5105178#1"/>
    <trip id="motorcycle182" type="motorcycle_motorcycle" depart="31.64" departLane="best" departSpeed="max" from="-177413662#1" to="5036011#1"/>
    <trip id="motorcycle183" type="motorcycle_motorcycle" depart="31.81" departLane="best" from="-900409383#5" to="5039124#1"/>
    <trip id="motorcycle184" type="motorcycle_motorcycle" depart="31.97" departLane="best" from="50977688#1" to="29043945#4"/>
    <trip id="motorcycle186" type="motorcycle_motorcycle" depart="32.31" departLane="best" from="-99661870#1" to="-96796483#0"/>
    <trip id="motorcycle187" type="motorcycle_motorcycle" depart="32.47" departLane="best" from="1123244150" to="-642405979#3"/>
    <trip id="motorcycle188" type="motorcycle_motorcycle" depart="32.64" departLane="best" from="-28295860#1" to="-688844762"/>
    <trip id="motorcycle189" type="motorcycle_motorcycle" depart="32.80" departLane="best" from="-28296271#7" to="148655577#1"/>
    <trip id="motorcycle190" type="motorcycle_motorcycle" depart="32.97" departLane="best" from="91213427" to="-92188772#4"/>
    <trip id="motorcycle191" type="motorcycle_motorcycle" depart="33.14" departLane="best" from="-93407546" to="629149897"/>
    <trip id="motorcycle192" type="motorcycle_motorcycle" depart="33.30" departLane="best" from="656425445" to="91213451#2"/>
    <trip id="motorcycle193" type="motorcycle_motorcycle" depart="33.47" departLane="best" from="-90969700#5" to="114216316"/>
    <trip id="motorcycle194" type="motorcycle_motorcycle" depart="33.64" departLane="best" from="-91631984#2" to="-91851211#1"/>
    <trip id="motorcycle195" type="motorcycle_motorcycle" depart="33.80" departLane="best" from="42296545#0" to="-156275466#3"/>
    <trip id="motorcycle196" type="motorcycle_motorcycle" depart="33.97" departLane="best" from="30074688#3" to="876156661"/>
    <trip id="motorcycle197" type="motorcycle_motorcycle" depart="34.14" departLane="best" from="-5035646#1" to="5050863#2"/>
    <trip id="motorcycle198" type="motorcycle_motorcycle" depart="34.30" departLane="best" from="570404674" to="-571427460"/>
    <trip id="motorcycle199" type="motorcycle_motorcycle" depart="34.47" departLane="best" from="722920398#1" to="1066266971#0"/>
    <trip id="motorcycle200" type="motorcycle_motorcycle" depart="34.64" departLane="best" from="-173549500#7" to="-29082249#3"/>
    <trip id="motorcycle201" type="motorcycle_motorcycle" depart="34.80" departLane="best" departSpeed="max" from="-540160178#1" to="29547899#3"/>
    <trip id="motorcycle202" type="motorcycle_motorcycle" depart="34.97" departLane="best" departSpeed="max" from="-590216070#1" to="-183531445"/>
    <trip id="motorcycle203" type="motorcycle_motorcycle" depart="35.14" departLane="best" from="50145023#3" to="-770078691#11"/>
    <trip id="motorcycle204" type="motorcycle_motorcycle" depart="35.30" departLane="best" from="160906410#2" to="5110110"/>
    <trip id="motorcycle205" type="motorcycle_motorcycle" depart="35.47" departLane="best" departSpeed="max" from="23379837#0" to="156919242#0"/>
    <trip id="motorcycle206" type="motorcycle_motorcycle" depart="35.80" departLane="best" from="863528879#3" to="90969712"/>
    <trip id="motorcycle207" type="motorcycle_motorcycle" depart="35.97" departLane="best" from="571115557#1" to="-1134219136#1"/>
    <trip id="motorcycle208" type="motorcycle_motorcycle" depart="36.14" departLane="best" from="-91582458#7" to="-91875661"/>
    <trip id="motorcycle209" type="motorcycle_motorcycle" depart="36.30" departLane="best" from="1251647303" to="1145572971#1"/>
    <trip id="motorcycle210" type="motorcycle_motorcycle" depart="36.47" departLane="best" from="434899697#5" to="-445079802#2"/>
    <trip id="motorcycle211" type="motorcycle_motorcycle" depart="36.63" departLane="best" from="5035306" to="-5033048#1"/>
    <trip id="motorcycle212" type="motorcycle_motorcycle" depart="36.80" departLane="best" from="-555149848#1" to="-27258846#1"/>
    <trip id="motorcycle213" type="motorcycle_motorcycle" depart="36.97" departLane="best" from="130046557#1" to="934142302"/>
    <trip id="motorcycle214" type="motorcycle_motorcycle" depart="37.13" departLane="best" from="51804624#18" to="157206907#2"/>
    <trip id="motorcycle215" type="motorcycle_motorcycle" depart="37.30" departLane="best" from="157028527#0" to="-5035845#1"/>
    <trip id="motorcycle216" type="motorcycle_motorcycle" depart="37.47" departLane="best" from="-9868414#1" to="-27275254#1"/>
    <trip id="motorcycle217" type="motorcycle_motorcycle" depart="37.63" departLane="best" from="92867196#2" to="-872732755#1"/>