<?xml version="1.0" encoding="UTF-8"?>

<!-- generated on 2024-03-16 09:58:58.046364 by osmWebWizard.py v1_19_0+0000-baa66a0f364
<configuration>
    <net-file value="C:\Users\MartinezKyle_\2024-03-16-09-09-15\osm.net.xml.gz"/>
    <output-trip-file value="C:\Users\MartinezKyle_\2024-03-16-09-09-15\osm.bus.trips.xml"/>
    <route-file value="C:\Users\MartinezKyle_\2024-03-16-09-09-15\osm.bus.rou.xml"/>
    <prefix value="bus"/>
    <trip-attributes value="departLane=&quot;best&quot;"/>
    <fringe-start-attributes value="departSpeed=&quot;max&quot;"/>
    <vehicle-class value="bus"/>
    <fringe-factor value="5"/>
    <vclass value="bus"/>
    <via-edge-types value="highway.motorway,highway.motorway_link,highway.trunk_link,highway.primary_link,highway.secondary_link,highway.tertiary_link"/>
    <min-distance value="600.0"/>
    <min-distance.fringe value="10.0"/>
    <remove-loops value="True"/>
    <validate value="True"/>
    <insertion-density value="4.0"/>
</configuration>
-->

<!-- generated on 2024-03-16 09:45:55 by Eclipse SUMO duarouter Version 1.19.0
<configuration xmlns:xsi="http://www.w3.org/2001/XMLSchema-instance" xsi:noNamespaceSchemaLocation="http://sumo.dlr.de/xsd/duarouterConfiguration.xsd">

    <input>
        <net-file value="C:\Users\MartinezKyle_\2024-03-16-09-09-15\osm.net.xml.gz"/>
        <route-files value="C:\Users\MartinezKyle_\2024-03-16-09-09-15\osm.bus.trips.xml"/>
    </input>

    <output>
        <output-file value="C:\Users\MartinezKyle_\2024-03-16-09-09-15\osm.bus.trips.xml.tmp"/>
        <alternatives-output value="NUL"/>
        <write-trips value="true"/>
    </output>

    <processing>
        <remove-loops value="true"/>
    </processing>

    <time>
        <begin value="0.0"/>
        <end value="3600.0"/>
    </time>

    <report>
        <no-warnings value="true"/>
        <ignore-errors value="true"/>
        <no-step-log value="true"/>
    </report>

</configuration>
-->

<routes xmlns:xsi="http://www.w3.org/2001/XMLSchema-instance" xsi:noNamespaceSchemaLocation="http://sumo.dlr.de/xsd/routes_file.xsd">
    <vType id="bus_bus" vClass="bus"/>
    <trip id="bus0" type="bus_bus" depart="0.00" departLane="best" from="224015280#0" to="-1141341344"/>
    <trip id="bus1" type="bus_bus" depart="0.17" departLane="best" from="-5132553#3" to="-4444857#5"/>
    <trip id="bus2" type="bus_bus" depart="0.34" departLane="best" from="4479710#19" to="318873427#1"/>
    <trip id="bus3" type="bus_bus" depart="0.50" departLane="best" from="852626229#4" to="-156275402#2"/>
    <trip id="bus4" type="bus_bus" depart="0.67" departLane="best" from="-91214827#0" to="-1165533521"/>
    <trip id="bus5" type="bus_bus" depart="0.84" departLane="best" from="-42296401#0" to="141104051#1"/>
    <trip id="bus6" type="bus_bus" depart="1.01" departLane="best" from="1124935402#4" to="-316372312#5"/>
    <trip id="bus7" type="bus_bus" depart="1.18" departLane="best" from="22731329#1" to="156129790#0"/>
    <trip id="bus8" type="bus_bus" depart="1.34" departLane="best" from="4263622#10" to="173549741"/>
    <trip id="bus9" type="bus_bus" depart="1.51" departLane="best" departSpeed="max" from="561970244#0" to="1065937102#1"/>
    <trip id="bus10" type="bus_bus" depart="1.68" departLane="best" from="-555210800#2" to="40130702"/>
    <trip id="bus11" type="bus_bus" depart="1.85" departLane="best" from="690977719#0" to="-23371283"/>
    <trip id="bus12" type="bus_bus" depart="2.02" departLane="best" from="91662170#6" to="759404390#0"/>
    <trip id="bus13" type="bus_bus" depart="2.18" departLane="best" departSpeed="max" from="-156923905#1" to="-157028531#1"/>
    <trip id="bus14" type="bus_bus" depart="2.35" departLane="best" from="918582251#2" to="18754937"/>
    <trip id="bus15" type="bus_bus" depart="2.52" departLane="best" departSpeed="max" from="556274208#0" to="-5033052#6"/>
    <trip id="bus17" type="bus_bus" depart="2.86" departLane="best" from="-881108292" to="-156577173#0"/>
    <trip id="bus18" type="bus_bus" depart="3.03" departLane="best" from="583653441" to="22696905#4"/>
    <trip id="bus19" type="bus_bus" depart="3.19" departLane="best" from="-69022975#0" to="5031530#1"/>
    <trip id="bus20" type="bus_bus" depart="3.36" departLane="best" from="32004129#2" to="-143729218#0"/>
    <trip id="bus21" type="bus_bus" depart="3.53" departLane="best" from="-47898967#1" to="-555235418#2"/>
    <trip id="bus22" type="bus_bus" depart="3.70" departLane="best" departSpeed="max" from="-155992316#1" to="50145019#2"/>
    <trip id="bus23" type="bus_bus" depart="3.87" departLane="best" departSpeed="max" from="-157207964" to="531759632#4"/>
    <trip id="bus24" type="bus_bus" depart="4.03" departLane="best" from="199426319#0" to="-887486268#0"/>
    <trip id="bus25" type="bus_bus" depart="4.20" departLane="best" from="-868494060#0" to="-366575995"/>
    <trip id="bus26" type="bus_bus" depart="4.37" departLane="best" from="-506006632" to="90969717#1"/>
    <trip id="bus27" type="bus_bus" depart="4.54" departLane="best" from="-22694465#7" to="-224030398#1"/>
    <trip id="bus28" type="bus_bus" depart="4.71" departLane="best" departSpeed="max" from="-28045089#1" to="5032242#2"/>
    <trip id="bus29" type="bus_bus" depart="4.87" departLane="best" from="27259031#3" to="5035610#3"/>
    <trip id="bus30" type="bus_bus" depart="5.04" departLane="best" from="-90969725#4" to="27259032#4"/>
    <trip id="bus31" type="bus_bus" depart="5.21" departLane="best" from="153521626#0" to="351863414#1"/>
    <trip id="bus32" type="bus_bus" depart="5.38" departLane="best" from="640426790#0" to="-538769023#2"/>
    <trip id="bus33" type="bus_bus" depart="5.55" departLane="best" departSpeed="max" from="-47975209" to="1202487209"/>
    <trip id="bus34" type="bus_bus" depart="5.71" departLane="best" departSpeed="max" from="-600818279" to="-5066071#5"/>
    <trip id="bus35" type="bus_bus" depart="5.88" departLane="best" departSpeed="max" from="-374923956#21" to="91213790#3"/>
    <trip id="bus36" type="bus_bus" depart="6.05" departLane="best" from="50838048" to="-631177055#0"/>
    <trip id="bus37" type="bus_bus" depart="6.22" departLane="best" from="-23371284#1" to="-91214371#3"/>
    <trip id="bus38" type="bus_bus" depart="6.39" departLane="best" departSpeed="max" from="893003861#0" to="1066502341#1"/>
    <trip id="bus39" type="bus_bus" depart="6.55" departLane="best" from="-5050387" to="-5035949"/>
    <trip id="bus41" type="bus_bus" depart="6.89" departLane="best" departSpeed="max" from="156919297#0" to="-879172124"/>
    <trip id="bus42" type="bus_bus" depart="7.06" departLane="best" departSpeed="max" from="-894830143#1" to="-4245580#0"/>
    <trip id="bus43" type="bus_bus" depart="7.23" departLane="best" from="9868324#5" to="143407959#4"/>
    <trip id="bus44" type="bus_bus" depart="7.39" departLane="best" from="-156919298#2" to="-143938126#2"/>
    <trip id="bus45" type="bus_bus" depart="7.56" departLane="best" departSpeed="max" from="-160906403#5" to="-1067199240"/>
    <trip id="bus46" type="bus_bus" depart="7.73" departLane="best" from="526957128#4" to="91877332#12"/>
    <trip id="bus47" type="bus_bus" depart="7.90" departLane="best" from="-151357080#4" to="-902540727"/>
    <trip id="bus48" type="bus_bus" depart="8.07" departLane="best" from="97935534#1" to="-153309646"/>
    <trip id="bus49" type="bus_bus" depart="8.23" departLane="best" from="91877290#1" to="760621461#2"/>
    <trip id="bus50" type="bus_bus" depart="8.40" departLane="best" from="-1075366873#1" to="50145004#0"/>
    <trip id="bus51" type="bus_bus" depart="8.57" departLane="best" from="-28239432#0" to="154078252#4"/>
    <trip id="bus52" type="bus_bus" depart="8.74" departLane="best" from="-505985589#1" to="-27259088#2"/>
    <trip id="bus53" type="bus_bus" depart="8.91" departLane="best" departSpeed="max" from="-163019534" to="-93407522"/>
    <trip id="bus54" type="bus_bus" depart="9.08" departLane="best" departSpeed="max" from="-93308262#2" to="-91631745#1"/>
    <trip id="bus55" type="bus_bus" depart="9.24" departLane="best" from="762325815" to="-5050872#1"/>
    <trip id="bus56" type="bus_bus" depart="9.41" departLane="best" from="-320614623#0" to="-282194769#2"/>
    <trip id="bus57" type="bus_bus" depart="9.58" departLane="best" from="-891870480" to="81340175"/>
    <trip id="bus58" type="bus_bus" depart="9.75" departLane="best" departSpeed="max" from="-563380814#4" to="27258964#0"/>
    <trip id="bus59" type="bus_bus" depart="9.92" departLane="best" from="16353314" to="-22761449#3"/>
    <trip id="bus60" type="bus_bus" depart="10.08" departLane="best" from="5039136" to="154835591#1"/>
    <trip id="bus61" type="bus_bus" depart="10.25" departLane="best" from="5065288" to="153313667"/>
    <trip id="bus62" type="bus_bus" depart="10.42" departLane="best" departSpeed="max" from="-1009955741" to="-670356444#8"/>
    <trip id="bus63" type="bus_bus" depart="10.59" departLane="best" departSpeed="max" from="-109371341#2" to="-902588224"/>
    <trip id="bus64" type="bus_bus" depart="10.76" departLane="best" from="772156526#1" to="657808646"/>
    <trip id="bus65" type="bus_bus" depart="10.92" departLane="best" from="-574904034#3" to="-150897608#0"/>
    <trip id="bus66" type="bus_bus" depart="11.09" departLane="best" from="772046523#3" to="91581342#0"/>
    <trip id="bus67" type="bus_bus" depart="11.26" departLane="best" departSpeed="max" from="-156275414#2" to="-1147970990"/>
    <trip id="bus68" type="bus_bus" depart="11.43" departLane="best" from="-153313725" to="5105021#2"/>
    <trip id="bus69" type="bus_bus" depart="11.60" departLane="best" from="5041746#0" to="-177410125#0"/>
    <trip id="bus70" type="bus_bus" depart="11.76" departLane="best" from="-1017269735#0" to="156307452#3"/>
    <trip id="bus71" type="bus_bus" depart="11.93" departLane="best" from="-5050818" to="824379998"/>
    <trip id="bus72" type="bus_bus" depart="12.10" departLane="best" from="-915513048#1" to="377579020#1"/>
    <trip id="bus73" type="bus_bus" depart="12.27" departLane="best" from="148655578" to="5034798#2"/>
    <trip id="bus74" type="bus_bus" depart="12.44" departLane="best" from="339649192#1" to="-620045830#0"/>
    <trip id="bus76" type="bus_bus" depart="12.77" departLane="best" from="91851208#7" to="-148655586#1"/>
    <trip id="bus77" type="bus_bus" depart="12.94" departLane="best" from="1178003974#2" to="4479710#14"/>
    <trip id="bus78" type="bus_bus" depart="13.11" departLane="best" departSpeed="max" from="-69021789#1" to="173549477#1"/>
    <trip id="bus79" type="bus_bus" depart="13.28" departLane="best" departSpeed="max" from="-4913808" to="-4263623"/>
    <trip id="bus80" type="bus_bus" depart="13.44" departLane="best" from="-153524021#7" to="-245141716#1"/>
    <trip id="bus81" type="bus_bus" depart="13.61" departLane="best" from="47899013#2" to="104950011#0"/>
    <trip id="bus82" type="bus_bus" depart="13.78" departLane="best" from="689187063" to="-153524074#0"/>
    <trip id="bus83" type="bus_bus" depart="13.95" departLane="best" departSpeed="max" from="-5030725#1" to="-29351986#0"/>
    <trip id="bus84" type="bus_bus" depart="14.12" departLane="best" from="392282393#1" to="-177413636#0"/>
    <trip id="bus85" type="bus_bus" depart="14.29" departLane="best" from="-90967342#1" to="158180763"/>
    <trip id="bus86" type="bus_bus" depart="14.45" departLane="best" from="-99660187#2" to="-555210800#3"/>
    <trip id="bus87" type="bus_bus" depart="14.62" departLane="best" departSpeed="max" from="556852190#0" to="-29222004#4"/>
    <trip id="bus88" type="bus_bus" depart="14.79" departLane="best" from="-91581312#3" to="107720062#3"/>
    <trip id="bus89" type="bus_bus" depart="14.96" departLane="best" from="4245548#5" to="-30074793#8"/>
    <trip id="bus90" type="bus_bus" depart="15.13" departLane="best" from="93309813#4" to="-157030398#2"/>
    <trip id="bus91" type="bus_bus" depart="15.29" departLane="best" departSpeed="max" from="-896899832" to="-774894655#11"/>
    <trip id="bus92" type="bus_bus" depart="15.46" departLane="best" from="69022974#7" to="-5036045"/>
    <trip id="bus93" type="bus_bus" depart="15.63" departLane="best" from="-29222046#2" to="-101156859#0"/>
    <trip id="bus94" type="bus_bus" depart="15.80" departLane="best" from="-91214822#4" to="-533296014"/>
    <trip id="bus95" type="bus_bus" depart="15.97" departLane="best" departSpeed="max" from="-5036016" to="895438730"/>
    <trip id="bus96" type="bus_bus" depart="16.13" departLane="best" departSpeed="max" from="-91877336#5" to="761777204#3"/>
    <trip id="bus97" type="bus_bus" depart="16.30" departLane="best" from="151702318" to="-146740061"/>
    <trip id="bus98" type="bus_bus" depart="16.47" departLane="best" from="99660189#1" to="669780005"/>
    <trip id="bus99" type="bus_bus" depart="16.64" departLane="best" departSpeed="max" from="91875652#0" to="90097020#1"/>
    <trip id="bus100" type="bus_bus" depart="16.81" departLane="best" from="656457995" to="-27258949#4"/>
    <trip id="bus102" type="bus_bus" depart="17.14" departLane="best" departSpeed="max" from="-894912563" to="-150898541"/>
    <trip id="bus103" type="bus_bus" depart="17.31" departLane="best" from="-882246806" to="93411306#2"/>
    <trip id="bus104" type="bus_bus" depart="17.48" departLane="best" from="-5050828#0" to="555149822#0"/>
    <trip id="bus105" type="bus_bus" depart="17.65" departLane="best" from="-93308339#0" to="-91877357"/>
    <trip id="bus106" type="bus_bus" depart="17.81" departLane="best" departSpeed="max" from="91662173" to="97934766#2"/>
    <trip id="bus107" type="bus_bus" depart="17.98" departLane="best" from="153313718#1" to="49744521"/>
    <trip id="bus108" type="bus_bus" depart="18.15" departLane="best" from="242860250#4" to="-571115501#16"/>
    <trip id="bus109" type="bus_bus" depart="18.32" departLane="best" from="91875641#1" to="-163246005#12"/>
    <trip id="bus110" type="bus_bus" depart="18.49" departLane="best" from="-149977880#6" to="-5049564#1"/>
    <trip id="bus111" type="bus_bus" depart="18.65" departLane="best" from="148656680#5" to="170525729#2"/>
    <trip id="bus112" type="bus_bus" depart="18.82" departLane="best" from="1110022281" to="709082354"/>
    <trip id="bus113" type="bus_bus" depart="18.99" departLane="best" from="-245313306#2" to="91851182#1"/>
    <trip id="bus114" type="bus_bus" depart="19.16" departLane="best" from="-155992345#1" to="-28421492#0"/>
    <trip id="bus115" type="bus_bus" depart="19.33" departLane="best" departSpeed="max" from="157206940#0" to="-30759009#0"/>
    <trip id="bus117" type="bus_bus" depart="19.66" departLane="best" from="844957033#1" to="-5035881"/>
    <trip id="bus118" type="bus_bus" depart="19.83" departLane="best" from="157206921#6" to="22730824"/>
    <trip id="bus119" type="bus_bus" depart="20.00" departLane="best" from="-91213393#1" to="169829687#4"/>
    <trip id="bus121" type="bus_bus" depart="20.34" departLane="best" from="35260361#0" to="4913622#1"/>
    <trip id="bus122" type="bus_bus" depart="20.50" departLane="best" from="-5031489#0" to="91214374#0"/>
    <trip id="bus123" type="bus_bus" depart="20.67" departLane="best" from="27323189#3" to="-572102715#2"/>
    <trip id="bus124" type="bus_bus" depart="20.84" departLane="best" from="-605910499#0" to="5050372#6"/>
    <trip id="bus125" type="bus_bus" depart="21.01" departLane="best" from="153750455#3" to="-28049084#0"/>
    <trip id="bus127" type="bus_bus" depart="21.34" departLane="best" from="153751842#8" to="389636346#1"/>
    <trip id="bus128" type="bus_bus" depart="21.51" departLane="best" from="-5050828#0" to="-908701545#0"/>
    <trip id="bus129" type="bus_bus" depart="21.68" departLane="best" from="158195419#3" to="856566443#2"/>
    <trip id="bus130" type="bus_bus" depart="21.85" departLane="best" from="868494015" to="-240379330#1"/>
    <trip id="bus132" type="bus_bus" depart="22.18" departLane="best" from="166331111#1" to="-93414536#2"/>
    <trip id="bus133" type="bus_bus" depart="22.35" departLane="best" from="230403173#1" to="106727280#5"/>
    <trip id="bus134" type="bus_bus" depart="22.52" departLane="best" from="245587967#3" to="91134754#1"/>
    <trip id="bus136" type="bus_bus" depart="22.86" departLane="best" departSpeed="max" from="-158318621#2" to="-156577216#2"/>
    <trip id="bus137" type="bus_bus" depart="23.02" departLane="best" from="-5104976#0" to="199425573#1"/>
    <trip id="bus138" type="bus_bus" depart="23.19" departLane="best" from="-368175439#0" to="-347971592"/>
    <trip id="bus139" type="bus_bus" depart="23.36" departLane="best" from="-186252563#3" to="-5050894"/>
    <trip id="bus140" type="bus_bus" depart="23.53" departLane="best" from="1075241344" to="892933970#1"/>
    <trip id="bus141" type="bus_bus" depart="23.70" departLane="best" from="651079971#1" to="-156919262#3"/>
    <trip id="bus142" type="bus_bus" depart="23.86" departLane="best" from="-91581312#3" to="-5193362#1"/>
    <trip id="bus143" type="bus_bus" depart="24.03" departLane="best" from="-1040966948#0" to="-533322615#2"/>
    <trip id="bus144" type="bus_bus" depart="24.20" departLane="best" from="207896050" to="-5050344"/>
    <trip id="bus145" type="bus_bus" depart="24.37" departLane="best" from="4913779" to="156420789"/>
    <trip id="bus146" type="bus_bus" depart="24.54" departLane="best" from="-91630984#6" to="1074006926#7"/>
    <trip id="bus147" type="bus_bus" depart="24.70" departLane="best" departSpeed="max" from="-154078404#4" to="863528874#1"/>
    <trip id="bus148" type="bus_bus" depart="24.87" departLane="best" from="869142734" to="156129824"/>
    <trip id="bus149" type="bus_bus" depart="25.04" departLane="best" from="6131750" to="169568686#0"/>
    <trip id="bus150" type="bus_bus" depart="25.21" departLane="best" from="22738535#4" to="-175177760"/>
    <trip id="bus152" type="bus_bus" depart="25.54" departLane="best" departSpeed="max" from="537977286" to="760619887"/>
    <trip id="bus153" type="bus_bus" depart="25.71" departLane="best" from="866818514#1" to="-368175439#3"/>
    <trip id="bus154" type="bus_bus" depart="25.88" departLane="best" from="-5036010#0" to="-157206908#1"/>
    <trip id="bus155" type="bus_bus" depart="26.05" departLane="best" from="5065696" to="864613610#0"/>
    <trip id="bus156" type="bus_bus" depart="26.22" departLane="best" departSpeed="max" from="-902547908" to="22733732"/>
    <trip id="bus157" type="bus_bus" depart="26.39" departLane="best" from="-242856810#5" to="902625226"/>
    <trip id="bus158" type="bus_bus" depart="26.55" departLane="best" from="699332053#0" to="932639916"/>
    <trip id="bus159" type="bus_bus" depart="26.72" departLane="best" from="-563380812#1" to="863267925#1"/>
    <trip id="bus160" type="bus_bus" depart="26.89" departLane="best" from="-111684338#0" to="5036017"/>
    <trip id="bus161" type="bus_bus" depart="27.06" departLane="best" departSpeed="max" from="-670018351#1" to="902889043#1"/>
    <trip id="bus162" type="bus_bus" depart="27.23" departLane="best" from="-54512231#0" to="772074367#0"/>
    <trip id="bus163" type="bus_bus" depart="27.39" departLane="best" from="563380810" to="-5065751#0"/>
    <trip id="bus164" type="bus_bus" depart="27.56" departLane="best" from="5135440#0" to="-158178045#0"/>
    <trip id="bus165" type="bus_bus" depart="27.73" departLane="best" from="739482694#0" to="753797085#1"/>
    <trip id="bus166" type="bus_bus" depart="27.90" departLane="best" from="-4442006" to="-62282935#4"/>
    <trip id="bus167" type="bus_bus" depart="28.07" departLane="best" departSpeed="max" from="-93411743#1" to="581517289#0"/>
    <trip id="bus169" type="bus_bus" depart="28.40" departLane="best" departSpeed="max" from="-1103729745" to="-29478238#1"/>
    <trip id="bus170" type="bus_bus" depart="28.57" departLane="best" from="-654869954#0" to="772156526#2"/>
    <trip id="bus171" type="bus_bus" depart="28.74" departLane="best" departSpeed="max" from="91875565#0" to="-533322615#0"/>
    <trip id="bus172" type="bus_bus" depart="28.91" departLane="best" from="224042474#0" to="-91582432#0"/>
    <trip id="bus175" type="bus_bus" depart="29.41" departLane="best" departSpeed="max" from="91877270#0" to="282194769#12"/>
    <trip id="bus176" type="bus_bus" depart="29.58" departLane="best" from="91848957#2" to="-5065384#1"/>
    <trip id="bus177" type="bus_bus" depart="29.75" departLane="best" from="160877794" to="-93407110#1"/>
    <trip id="bus178" type="bus_bus" depart="29.91" departLane="best" from="4245391#1" to="629149906#0"/>
    <trip id="bus179" type="bus_bus" depart="30.08" departLane="best" from="161414087#2" to="143849108#2"/>
    <trip id="bus180" type="bus_bus" depart="30.25" departLane="best" from="-893014520#4" to="-161053486#2"/>
    <trip id="bus181" type="bus_bus" depart="30.42" departLane="best" from="-5041709#1" to="4473606#1"/>
    <trip id="bus182" type="bus_bus" depart="30.59" departLane="best" departSpeed="max" from="-101156858" to="900409384#3"/>
    <trip id="bus183" type="bus_bus" depart="30.75" departLane="best" from="148655546#1" to="4994641#7"/>
    <trip id="bus185" type="bus_bus" depart="31.09" departLane="best" from="-863509549" to="153524021#6"/>
    <trip id="bus186" type="bus_bus" depart="31.26" departLane="best" from="25052688#0" to="-69054509"/>
    <trip id="bus187" type="bus_bus" depart="31.43" departLane="best" from="-58586713#5" to="-692662500#5"/>
    <trip id="bus188" type="bus_bus" depart="31.60" departLane="best" from="377579017#7" to="-573461183"/>
    <trip id="bus189" type="bus_bus" depart="31.76" departLane="best" from="579100506#1" to="-91662207#11"/>
    <trip id="bus190" type="bus_bus" depart="31.93" departLane="best" from="-895559287#2" to="-570405322#1"/>
    <trip id="bus191" type="bus_bus" depart="32.10" departLane="best" departSpeed="max" from="-177413657#4" to="-91877285"/>
    <trip id="bus192" type="bus_bus" depart="32.27" departLane="best" from="-91134744#2" to="32004159#2"/>
    <trip id="bus193" type="bus_bus" depart="32.44" departLane="best" from="868723463#2" to="-225366343#0"/>
    <trip id="bus194" type="bus_bus" depart="32.60" departLane="best" from="568623266" to="-156198021#7"/>
    <trip id="bus195" type="bus_bus" depart="32.77" departLane="best" from="-1008790089" to="545357786#0"/>
    <trip id="bus196" type="bus_bus" depart="32.94" departLane="best" from="-91631724#1" to="164043054#8"/>
    <trip id="bus197" type="bus_bus" depart="33.11" departLane="best" from="23297282#0" to="1076701908#1"/>
    <trip id="bus198" type="bus_bus" depart="33.28" departLane="best" from="91877266#6" to="-389636667#7"/>
    <trip id="bus199" type="bus_bus" depart="33.44" departLane="best" from="-997326951#0" to="887380436"/>
    <trip id="bus201" type="bus_bus" depart="33.78" departLane="best" from="156198231#0" to="146694555#2"/>
    <trip id="bus202" type="bus_bus" depart="33.95" departLane="best" from="183691232#1" to="-739482692#0"/>
    <trip id="bus203" type="bus_bus" depart="34.12" departLane="best" from="-571115567#5" to="5049946"/>
    <trip id="bus204" type="bus_bus" depart="34.28" departLane="best" departSpeed="max" from="27773804#0" to="-4479710#1"/>
    <trip id="bus206" type="bus_bus" depart="34.62" departLane="best" from="-5035494#3" to="1096466665#0"/>
    <trip id="bus207" type="bus_bus" depart="34.79" departLane="best" from="662913523#0" to="153751843#18"/>
    <trip id="bus208" type="bus_bus" depart="34.96" departLane="best" from="-90969715#0" to="-243454683#2"/>
    <trip id="bus209" type="bus_bus" depart="35.12" departLane="best" from="-30060673#0" to="-389636661"/>
    <trip id="bus210" type="bus_bus" depart="35.29" departLane="best" from="1078239897#1" to="-5035653#4"/>
    <trip id="bus211" type="bus_bus" depart="35.46" departLane="best" from="-23379703#0" to="-1063323634"/>
    <trip id="bus212" type="bus_bus" depart="35.63" departLane="best" from="-5031687#1" to="533296010#0"/>
    <trip id="bus213" type="bus_bus" depart="35.80" departLane="best" departSpeed="max" from="-158182279" to="923242881"/>
    <trip id="bus214" type="bus_bus" depart="35.96" departLane="best" departSpeed="max" from="-28244233#1" to="91828792#1"/>
    <trip id="bus215" type="bus_bus" depart="36.13" departLane="best" departSpeed="max" from="1227359017" to="146694561#0"/>
    <trip id="bus216" type="bus_bus" depart="36.30" departLane="best" from="-5036004#0" to="693442954"/>
    <trip id="bus217" type="bus_bus" depart="36.47" departLane="best" departSpeed="max" from="-93309822#4" to="574904022#5"/>
    <trip id="bus218" type="bus_bus" depart="36.64" departLane="best" from="26944682#7" to="93414551"/>
    <trip id="bus219" type="bus_bus" depart="36.80" departLane="best" from="157206970" to="91583592#0"/>
    <trip id="bus221" type="bus_bus" depart="37.14" departLane="best" from="374923031#4" to="137493549#4"/>
    <trip id="bus222" type="bus_bus" depart="37.31" departLane="best" from="584296032#1" to="-156198021#1"/>
    <trip id="bus223" type="bus_bus" depart="37.48" departLane="best" from="863528881#1" to="5042305#1"/>
    <trip id="bus224" type="bus_bus" depart="37.65" departLane="best" from="101156505#3" to="5049571"/>
    <trip id="bus225" type="bus_bus" depart="37.81" departLane="best" from="-5035852#3" to="27011012#3"/>
    <trip id="bus226" type="bus_bus" depart="37.98" departLane="best" from="-5041745#1" to="150881725#3"/>
    <trip id="bus227" type="bus_bus" depart="38.15" departLane="best" from="177413667#0" to="-5191554#3"/>
    <trip id="bus228" type="bus_bus" depart="38.32" departLane="best" from="154884093#4" to="-543981279#1"/>
    <trip id="bus229" type="bus_bus" depart="38.49" departLane="best" from="5104885#3" to="-651991047"/>
    <trip id="bus230" type="bus_bus" depart="38.65" departLane="best" departSpeed="max" from="148655599#0" to="-183691678#3"/>
    <trip id="bus231" type="bus_bus" depart="38.82" departLane="best" from="-4947932#5" to="379390888#1"/>
    <trip id="bus232" type="bus_bus" depart="38.99" departLane="best" from="-32952725" to="-152178442#5"/>
    <trip id="bus234" type="bus_bus" depart="39.33" departLane="best" from="-90969748#1" to="-35260970"/>
    <trip id="bus235" type="bus_bus" depart="39.49" departLane="best" departSpeed="max" from="-91213446#4" to="-892916925#1"/>
    <trip id="bus237" type="bus_bus" depart="39.83" departLane="best" from="680057622#0" to="-5191578#2"/>
    <trip id="bus238" type="bus_bus" depart="40.00" departLane="best" departSpeed="max" from="-886952306#5" to="106486846#1"/>
    <trip id="bus239" type="bus_bus" depart="40.17" departLane="best" departSpeed="max" from="-793437844" to="5050896#2"/>
    <trip id="bus240" type="bus_bus" depart="40.33" departLane="best" from="669998534#4" to="91631736#1"/>
    <trip id="bus241" type="bus_bus" depart="40.50" departLane="best" departSpeed="max" from="-91213372#1" to="5047475#5"/>
    <trip id="bus242" type="bus_bus" depart="40.67" departLane="best" from="150898442#1" to="184721158#0"/>
    <trip id="bus243" type="bus_bus" depart="40.84" departLane="best" from="4263622#8" to="-4245582"/>
    <trip id="bus244" type="bus_bus" depart="41.01" departLane="best" from="91830776#12" to="-1163552645"/>
    <trip id="bus245" type="bus_bus" depart="41.17" departLane="best" from="-151702305" to="32867843#1"/>
    <trip id="bus246" type="bus_bus" depart="41.34" departLane="best" from="90096882#2" to="2670554"/>
    <trip id="bus247" type="bus_bus" depart="41.51" departLane="best" from="-97804002#2" to="-175177817"/>
    <trip id="bus248" type="bus_bus" depart="41.68" departLane="best" from="177410122#3" to="-1153255302"/>
    <trip id="bus249" type="bus_bus" depart="41.85" departLane="best" departSpeed="max" from="-894483691" to="-157206905#1"/>
    <trip id="bus250" type="bus_bus" depart="42.01" departLane="best" from="-1135586949#0" to="27323528#1"/>
    <trip id="bus251" type="bus_bus" depart="42.18" departLane="best" from="-199750952#3" to="1072740681#0"/>
    <trip id="bus252" type="bus_bus" depart="42.35" departLane="best" from="-143729218#0" to="-899679540"/>
    <trip id="bus253" type="bus_bus" depart="42.52" departLane="best" from="379389868#13" to="-688086637#3"/>
    <trip id="bus254" type="bus_bus" depart="42.69" departLane="best" departSpeed="max" from="5036033" to="-899757608#1"/>
    <trip id="bus255" type="bus_bus" depart="42.86" departLane="best" from="5032044#10" to="114216317#0"/>
    <trip id="bus256" type="bus_bus" depart="43.02" departLane="best" from="-5040639" to="-156129783#0"/>
    <trip id="bus257" type="bus_bus" depart="43.19" departLane="best" departSpeed="max" from="-1092839672" to="154835591#4"/>
    <trip id="bus258" type="bus_bus" depart="43.36" departLane="best" from="1088187930" to="-858142058#2"/>
    <trip id="bus259" type="bus_bus" depart="43.53" departLane="best" from="22731839#2" to="545357789"/>
    <trip id="bus260" type="bus_bus" depart="43.70" departLane="best" from="22738933" to="5055416#5"/>
    <trip id="bus261" type="bus_bus" depart="43.86" departLane="best" departSpeed="max" from="91582433" to="318873416#1"/>
    <trip id="bus262" type="bus_bus" depart="44.03" departLane="best" from="-1094771881" to="-22738620#7"/>
    <trip id="bus263" type="bus_bus" depart="44.20" departLane="best" departSpeed="max" from="-177410237#8" to="-29478071#0"/>
    <trip id="bus264" type="bus_bus" depart="44.37" departLane="best" departSpeed="max" from="154422888#0" to="-418317028#2"/>
    <trip id="bus265" type="bus_bus" depart="44.54" departLane="best" from="295991556#0" to="5192236#2"/>
    <trip id="bus266" type="bus_bus" depart="44.70" departLane="best" from="-27862967#4" to="210547044#1"/>
    <trip id="bus267" type="bus_bus" depart="44.87" departLane="best" from="571427465#0" to="91875615#0"/>
    <trip id="bus268" type="bus_bus" depart="45.04" departLane="best" from="-15867986" to="-1149137445"/>
    <trip id="bus269" type="bus_bus" depart="45.21" departLane="best" from="581537342#6" to="32004169#0"/>
    <trip id="bus270" type="bus_bus" depart="45.38" departLane="best" departSpeed="max" from="91662201#0" to="-91214832"/>