<?xml version="1.0" encoding="UTF-8"?>

<!-- generated on 2024-03-16 09:12:22.837794 by osmWebWizard.py v1_19_0+0000-baa66a0f364
<configuration>
    <net-file value="C:\Users\MartinezKyle_\2024-03-16-09-09-15\osm.net.xml.gz"/>
    <ptlines-file value="C:\Users\MartinezKyle_\2024-03-16-09-09-15\osm_ptlines.xml"/>
    <ptstops-file value="C:\Users\MartinezKyle_\2024-03-16-09-09-15\osm_stops.add.xml"/>
    <output-file value="C:\Users\MartinezKyle_\2024-03-16-09-09-15\osm_pt.rou.xml"/>
    <stopinfos-file value="C:\Users\MartinezKyle_\2024-03-16-09-09-15\stopinfos.xml"/>
    <routes-file value="C:\Users\MartinezKyle_\2024-03-16-09-09-15\vehroutes.xml"/>
    <trips-file value="C:\Users\MartinezKyle_\2024-03-16-09-09-15\trips.trips.xml"/>
    <min-stops value="0"/>
    <extend-to-fringe value="True"/>
    <random-begin value="True"/>
    <seed value="42"/>
    <ignore-errors value="True"/>
    <vtype-prefix value="pt_"/>
    <verbose value="True"/>
</configuration>
-->

<routes xmlns:xsi="http://www.w3.org/2001/XMLSchema-instance" xsi:noNamespaceSchemaLocation="http://sumo.dlr.de/xsd/routes_file.xsd">
    <vType id="pt_bus" vClass="bus"/>
    <vType id="pt_tram" vClass="tram"/>
    <vType id="pt_train" vClass="rail"/>
    <vType id="pt_subway" vClass="rail_urban"/>
    <vType id="pt_light_rail" vClass="rail_urban"/>
    <vType id="pt_monorail" vClass="rail_urban"/>
    <vType id="pt_trolleybus" vClass="bus"/>
    <vType id="pt_minibus" vClass="bus"/>
    <vType id="pt_share_taxi" vClass="taxi"/>
    <vType id="pt_aerialway" vClass="rail_urban" length="2.5" width="2" personCapacity="4"/>
    <vType id="pt_ferry" vClass="ship"/>
    <route id="pt_bus_MetroExpress_Modern_Jeepney:_SoMo_→_Vista_Mall_Kawit:0" edges="134126592#0" >
        <stop busStop="10673347232" duration="20" until="40.0"/> <!-- Pasong Buaya -->
    </route>
    <route id="pt_bus_SZ:1" color="white" edges="560538898#1 560538903#0 560538903#2 560538903#3 -712245744#1 -564298126#14 -564298126#11 -564298126#7 -564298126#6 -564298126#4 -564298126#3 -564298126#2 -564298126#1 -564298126#0 -712245743 -712245739#1 -26944682#17 -26944682#14 -26944682#12 -26944682#11 -26944682#10 -26944682#9 -26944682#8 -26944682#7 -26944682#4 -26944682#0" >
        <stop busStop="-6160787431" duration="20" until="102.0"/> <!-- St. Dominic College -->
    </route>
    <route id="pt_bus_31:0" edges="26944682#11" >
        <stop busStop="7674694069" duration="20" until="31.0"/> <!-- Niog -->
    </route>
    <route id="pt_bus_SZ:0" color="white" edges="26944682#0 26944682#4 26944682#7 26944682#8 26944682#9 26944682#10 26944682#11 26944682#12 26944682#14 26944682#17 712245739#1 657808643 564298126#0 564298126#1 564298126#2 564298126#3 564298126#4 564298126#6 564298126#7 564298126#11 564298126#14 712245744#0 -653727192 -560538903#2 -560538903#0 -560538898#1 662062049#0 662062049#1 245313306#0 245313306#1 245313306#2 245313306#3" >
        <stop busStop="7674694069" duration="20" until="90.0"/> <!-- Niog -->
    </route>
    <route id="pt_train_SS:0" edges="370439173#0 370439173#1 370439173#2 370439173#3 370439173#4 370439173#5 370439173#6 370439173#7 370439173#8 370439173#9 370439173#10 370439173#11 469390758#1 469390758#2 469390758#3 469390758#4 370439170 370439169 370439167 370439166#0 370439166#1 370439174#1 370443332#1 370443332#2 801444517#1" >
        <stop busStop="3741382296" duration="20" until="326.0"/> <!-- Paco -->
    </route>
    <route id="pt_train_SS:1" edges="370439165#1" >
        <stop busStop="709610674" duration="20" until="119.0"/> <!-- Paco -->
    </route>
    <route id="pt_bus_MetroExpress_Modern_Jeepney:_SoMo_→_Vista_Mall_General_Trias:0" color="orange" edges="561748200 561748198#0 561748198#1 624604438 624604437 561748201 561748199 852188473 561748193 561748189 573710409#0 651080002 683268248#1 183690512#3 183690512#5 183690512#6 183690512#7 183690512#8 183690512#9 580815652 183687104#1 183687104#3 183679858#1 1088538600 134126592#0 134126592#1 134126592#2 134126592#3 183679855#0 183679855#2 183679855#3 183679855#4 568992325 180101272 180101273 665790984 665790986#1 665794039#0 665794039#1 573710378" >
        <stop busStop="10673347232" duration="20" until="206.0"/> <!-- Pasong Buaya -->
    </route>
    <route id="pt_bus_T326:0" color="yellow" edges="806562809#0 1065926908#1 782006513#0 712297676 712297674#0 712297674#1 217348935#0 217348935#1 630378626#1 630378626#2 217606173 83785713#1 83785713#2 83785713#3 712297677#0 712297677#1 217348934 208938284#1 28724490#0 28724490#1 28724490#3 28724490#4 28724490#5 28724490#6 28724490#7 28724490#8 28724490#10 28724490#11 28724490#12 28724490#13 28724490#14 28724490#16 28724490#17 28724490#18 28724490#19 769178984#1 769178984#2 154422841#0 154422841#1 154422841#2 154422841#3 154422841#4 154422841#5 154422841#6 154422841#7 154422841#8 154422841#9 698290031#0 1068072813#0 1068072813#1 154422837#1 154422837#2 154422837#3 154422837#4 526957115#0 526957115#1 526957115#3 130576792#0 130576792#1 130576792#2 130576792#3 130576792#4" >
    </route>
    <route id="pt_bus_MetroExpress_Modern_Jeepney:_Vista_Mall_General_Trias_→_SoMo:0" color="orange" edges="544473026 665794040#0 665794040#1 665789150#0 665789150#2 665789151#1 1075241344 1075241343 1075238372#0 1075238372#1 1075238372#2 1075238372#3 1075238372#4 1075238369 1075241345 665790983#2 180101271 180101270#0 180101270#2 180101270#3 180101270#4 180101270#5 180101270#6 180101270#7 180101270#8 180101270#10 180101270#11 1088538599 183685560#1 183685560#2 183685560#3 183685560#5 183685561 580815653#0 580815653#1 759516987#0 759516987#2 573710408#1 573710408#2 651080025 158466192#1 624604436 561748196 561748198#0 561748198#1 624604438 624604437 561748201 561748200" >
        <stop busStop="7081968088" duration="20" until="189.0"/> <!-- Ayala Malls Vermosa -->
    </route>
    <route id="pt_bus_T427:0" edges="564378177#0 1054692374 580823651 665214732#0 665214732#1 665214722 665214720 1059672666 180087572 1059672665 1059672664#0 1059672664#1 1059676185 1033158925#0 1033158925#1 366949696 561748189 573710409#0 651080002 183689805#1 183689805#2 183689805#3 1054125801#0 1054125801#1 638437006" >
        <stop busStop="9691921084" duration="20" until="344.0"/> <!-- Springville -->
    </route>
    <route id="pt_bus_MetroExpress_Shuttle:_Camella_Homes_Daang_Hari_Loop:0" color="orange" edges="561748200 561748198#0 561748198#1 624604438 624604437 561748201 561748199 852188473 561748193 561748195" >
        <stop busStop="5534125936" duration="20" until="38.0"/> <!-- Vista Mall Daang Hari Terminal -->
    </route>
    <route id="pt_bus_MetroExpress_Modern_Jeepney:_Vista_Mall_Kawit_→_SoMo:0" edges="544473026 665794040#0 665794040#1 665789150#0 665789150#2 665789151#1 1075241344 1075241343 1075238372#0 1075238372#1 1075238372#2 1075238372#3 1075238372#4 1075238369 1075241345 665790983#2 180101271 180101270#0 180101270#2 180101270#3 180101270#4 180101270#5 180101270#6 180101270#7 180101270#8 180101270#10 180101270#11 1088538599 183685560#1 183685560#2 183685560#3 183685560#5 183685561 580815653#0 580815653#1 759516987#0 759516987#2 573710408#1 573710408#2 651080025 158466192#1 624604436 561748196 561748198#0 561748198#1 624604438 624604437 561748201 561748200" >
        <stop busStop="7081968088" duration="20" until="224.0"/> <!-- Ayala Malls Vermosa -->
    </route>
    <route id="pt_bus_T326:1" color="yellow" edges="806562809#0 1065926908#1 782006513#0 712297676 712297674#0 712297674#1 217348935#0 217348935#1 630378626#1 630378626#2 217606173 83785713#1 83785713#2 83785713#3 712297677#0 712297677#1 217348934 208938284#1 28724490#0 28724490#1 28724490#3 28724490#4 28724490#5 28724490#6 28724490#7 28724490#8 28724490#10 28724490#11 28724490#12 28724490#13 28724490#14 28724490#16 28724490#17 28724490#18 28724490#19 769178984#1 769178984#2 154422841#0 154422841#1 154422841#2 154422841#3 154422841#4 154422841#5 154422841#6 154422841#7 154422841#8 154422841#9 698290031#0 1068072813#0 1068072813#1 154422837#1 154422837#2 154422837#3 154422837#4 526957115#0 526957115#1 526957115#3" >
    </route>
    <route id="pt_bus_NDTSC_Jeepney:_DBB-C_→_Downtown/Bayan:0" color="grey" edges="873444846 -873444846 -880825245#4 -880825245#3 -880825245#2 -880825245#1 -583653404#2 -583653404#1 -583653404#0 583653407#0 583653407#1 323299319#0 323299319#1 323299319#2 583653410#1 583653411#0 583653411#1 544439829#0 544439829#1 544439829#2 544439829#3 544439836#0 544439836#1 544439836#2 583653441 583653442#0 583653442#1 -568394937#0 559462974 561795324 584296036#1 584296036#2 728925038 29545358 570931372 570931370 570931373#0 570931373#1 570931373#2 570931373#3 570931373#4 570931373#5 570931373#6 570931373#7 570931375#0 570931375#1 570931375#2 555235372 570931374#0 570931374#1 570931374#2 570931394 570931393 559462972 726977479 559462973 575298489#1 575298489#2 575298490 52977460 575298491 581724156 584296022 680828522 544447258" >
        <stop busStop="5564014454" duration="20" until="159.0"/> <!-- Fatima -->
        <stop busStop="5520537026" duration="20" until="227.0"/> <!-- Santa Fe -->
        <stop busStop="5416556655" duration="20" until="287.0"/> <!-- DLSU-D Gate 1 -->
        <stop busStop="5580120051" duration="20" until="361.0"/> <!-- DASCA -->
        <stop busStop="6829323046" duration="20" until="423.0"/> <!-- Dasmariñas Integrated High School -->
        <stop busStop="5395917506" duration="20" until="491.0"/> <!-- SM Marketmall Dasmariñas -->
        <stop busStop="5416556657" duration="20" until="600.0"/> <!-- DLSU-D Gate 3 -->
    </route>
    <route id="pt_bus_27J:0" color="9,82,161" edges="645337993#0 642764198 1117935206 645337992#1 636737586 632555213 1109616686 644424829 734355081 644424830 644424825 857094728 4486365#0 42059267 846260180 4486322 613962959 2670552#0 2670552#1 2670552#1-AddedOffRampEdge 575288141#1 540197124#0 540197124#1 540197124#2 540197124#4 568975568 492209951 1074261077 568975570-AddedOnRampEdge 568975570 563743937 191681722 564221897 109733602 563748264 162328085#0 162328085#1 164277298 352801326 328132258#1 328132258#2 328132258#3 328132258#4 328132258#5 328132258#6 328132258#7 328132258#8 328132258#9 328132258#10 328132258#12 555020940#1 564298145#0 922415126 360482272#0 360482272#1 -712245744#1 -564298126#14 -564298126#11 -564298126#7 -564298126#6 -564298126#4 -564298126#3 -564298126#2 -564298126#1 -564298126#0 -712245743 -712245739#1 -26944682#17 -26944682#14 -26944682#12 -26944682#11 -26944682#10 -26944682#9 -26944682#8 -26944682#7 -26944682#4 -26944682#0" >
        <stop busStop="5355789162" duration="20" until="465.0"/> <!-- Zapote-Longos -->
        <stop busStop="7674694074" duration="20" until="551.0"/> <!-- Talaba -->
    </route>
    <route id="pt_bus_Minibus:_Central_Mall_Dasmariñas_→_SaveMore_San_Marino:0" color="white" edges="630495183 544489096 665787432 4468661 581029733#1 581029733#2 581029733#3 665787426 665787425 665515475 4468657#0 4468657#1 569183406 544489093#0 544489093#1 581029723 665787417 581029724 665787416#0 665787416#1 665787416#2 665787414#1 665787414#2 628567805#1 628567805#2 628567805#3 628567807#1 1103029866 1103029846 1103029845 1103029843 1103029865#0 1103029865#1 1103029849 1103029857 1103029853 1103029852 1103029856#0 1103029858#0 1103029863#1 1103029863#2 1103029835#0 1103029835#3 1103029835#4 1033118917#0 651079971#0 651079971#1 1090755301 651079972 114213935#0 114213935#1 631177077#0 631177077#1 662913508#0 662913508#1 662913508#2 662913507 662913519#1 662913527#0 662913527#1 563021913#0 563021913#1 563021913#2 563021916#0 563021916#1 1111219646 1111219645 1111218516 830653842 830653841 1111218518 1111218517 574917539#1" >
        <stop busStop="6534636041" duration="20" until="85.0"/> <!-- Orchard Golf and Country Club -->
        <stop busStop="8176877281" duration="20" until="173.0"/> <!-- Orchard East -->
    </route>
    <route id="pt_bus_NDTSC_Jeepney:_Downtown/Bayan_→_DBB-C:0" color="grey" edges="52977451 680832200 563500190 544437614#0 544437614#1 544437614#2 544437614#3 544437614#4 544437614#5 728932386#0 584296025 728932387 584296024 555235376 570931376#0 570931376#1 570931376#2 570931376#3 570931376#4 570931376#5 570931376#6 570931376#7 544437611 570931371 544437612 1037463429 565845044#0 584296034 561795329#0 561795329#1 561795329#2 561795329#3 544439819 544439822#0 544439822#1 544439822#2 544439822#3 561795342#1 561795342#2 583653437#0 583653409#1 583653409#2 30679546 583653436 583653432 583653404#0 583653404#1 583653404#2 880825245#1 880825245#2 880825245#3 880825245#4 873444846 873444845#0 873444845#1 91875561#0 91875561#1 -240382725#1 -240382725#0 878398215#0 878398215#1 878398215#2 91134779#0 91134779#1 91134779#2 91134779#3 631571435#1 872732747#1" >
        <stop busStop="5416556656" duration="20" until="50.0"/> <!-- DLSU-D Gate 3 -->
        <stop busStop="5585400846" duration="20" until="175.0"/> <!-- Dasmariñas 2 Central School -->
        <stop busStop="6829233694" duration="20" until="229.0"/> <!-- Dasmariñas Integrated High School -->
        <stop busStop="5580120050" duration="20" until="287.0"/> <!-- DASCA -->
        <stop busStop="6829233695" duration="20" until="338.0"/> <!-- Saint Paul Medical Center -->
        <stop busStop="5416556654" duration="20" until="394.0"/> <!-- DLSU-D Gate 1 -->
        <stop busStop="331291446" duration="20" until="632.0"/> <!-- Dasmariñas East Integrated High School -->
    </route>
    <route id="pt_bus_27J:1" color="9,82,161" edges="26944682#0 26944682#4 26944682#7 26944682#8 26944682#9 26944682#10 26944682#11 26944682#12 26944682#14 26944682#17 712245739#1 657808643 564298126#0 564298126#1 564298126#2 564298126#3 564298126#4 564298126#6 564298126#7 564298126#11 564298126#14 712245744#0 564298119#1 564298119#2 657808646 560539701#0 200093474#0 200093474#1 200093474#2 200093474#3 200093474#4 200093474#6 574220655#1 574220655#2 574220655#4 23959414 306636445 653015388 272985473 564298160 555020929 107773896 555020925#0 555020925#1 734379942#0 734379942#1 23959380 724670137 22730660 724670138 22730634 22730634-AddedOffRampEdge 555020891 568975575#0 568975575#1 555020886 575293226#0 575293226#1 563743939 708734828-AddedOnRampEdge 708734828 699824385 4486320 856789357 1210746304 856800834 687100203 635697021 42059266 644424827#0 644424827#1 644424827#2 644424827#3 644424826#0 644424826#1 644424826#2 645165795 4209096#0 4209096#1 643308212#0 567601664 990459277#0 990459277#1 990459277#2 625056988#0 625056988#1 625056986 625056990 644424828" >
        <stop busStop="7674694069" duration="20" until="57.0"/> <!-- Niog -->
    </route>
    <route id="pt_bus_SZ:2" color="white" edges="560538898#1 560538903#0 560538903#2 560538903#3 -712245744#1 -564298126#14 -564298126#11 -564298126#7 -564298126#6 -564298126#4 -564298126#3 -564298126#2 -564298126#1 -564298126#0 -712245743 -712245739#1 -26944682#17 -26944682#14 -26944682#12 -26944682#11 -26944682#10 -26944682#9 -26944682#8 -26944682#7 -26944682#4 -26944682#0" >
        <stop busStop="-6160787431" duration="20" until="148.0"/> <!-- St. Dominic College -->
    </route>
    <route id="pt_bus_SZ:3" color="white" edges="26944682#0 26944682#4 26944682#7 26944682#8 26944682#9 26944682#10 26944682#11 26944682#12 26944682#14 26944682#17 712245739#1 657808643 564298126#0 564298126#1 564298126#2 564298126#3 564298126#4 564298126#6 564298126#7 564298126#11 564298126#14 712245744#0 -653727192 -560538903#2 -560538903#0 -560538898#1 662062049#0 662062049#1 245313306#0 245313306#1 245313306#2 245313306#3" >
        <stop busStop="7674694069" duration="20" until="58.0"/> <!-- Niog -->
    </route>
    <route id="pt_bus_31D:0" edges="646591010 646591012 687901679 644424828 645337993#0 642764198 1117935206 645337992#1 636737586 632555213 1109616686 644424829 734355081 644424830 644424825 857094728 4486365#0 42059267 846260180 4486322 613962959 2670552#0 2670552#1 2670552#1-AddedOffRampEdge 575288141#1 540197124#0 540197124#1 540197124#2 540197124#4 568975568 492209951 1074261077 568975570-AddedOnRampEdge 568975570 563743937 191681722 564221897 109733602 563748264 162328085#0 162328085#1 164277298 352801326 328132258#1 328132258#2 328132258#3 328132258#4 328132258#5 328132258#6 328132258#7 328132258#8 328132258#9 328132258#10 328132258#12 555020940#1 564298145#0 922415126 360482272#0 360482272#1 -712245744#1 -564298126#14 -564298126#11 -564298126#7 -564298126#6 -564298126#4 -564298126#3 -564298126#2 -564298126#1 -564298126#0 -712245743 -712245739#1 -26944682#17 -26944682#14 -26944682#12 -26944682#11 -26944682#10 -26944682#9 -26944682#8 -26944682#7 -26944682#4 -26944682#0" >
        <stop busStop="5355789162" duration="20" until="527.0"/> <!-- Zapote-Longos -->
        <stop busStop="7674694074" duration="20" until="635.0"/> <!-- Talaba -->
    </route>
    <route id="pt_bus_1:0" edges="156780902#5 331335835#0 331335835#1 636737605 351794321 351794320#0 351794320#2 351794320#3 351794320#4 351794320#5 351794320#6 351794320#7 649167318 706248358 706248360#0 706248360#1 245321835#1 245321835#2 245321835#3 691324764#1 691324764#2 125530431#0 691324768#0 710595145 710595146#0 710595146#1 710595146#2 649167314#0 209860587#1 780743590 780743591 649167312#0 388593348#1 388593348#2 388593348#3 388593348#4 1013439505 22738470 22738471 1074261807 649167309#0 200480854#1 643279434 636737466 583457317#0 245238966#1 643308211#0 567601664 990459277#0 990459277#1 990459277#2 625056988#0 625056988#1 625056986 625056990 644424828" >
    </route>
    <route id="pt_bus_Filcab:_The_District_Imus_→_The_District_Dasmariñas:0" edges="544473026 665794040#0 665794040#1 665789150#0 665789150#2 665789151#1 1075241344 1075241343 1075238372#0 1075238372#1 1075238372#2 1075238372#3 1075238372#4 1075238369 1075241345 665790983#2 180101271 180101270#0 180101270#2 180101270#3 180101270#4 180101270#5 180101270#6 180101270#7 180101270#8 180101270#10 180101270#11 1088538599 183685560#1 183685560#2 183685560#3 183685560#5 183685561 580815653#0 580815653#1 759516987#0 759516987#2 573710408#1 573710408#2 183689805#1 183689805#2 183689805#3 1054125801#0 1054125801#1 879172108 1054125800 651080031 894843877#0 894843877#1 894843877#2 894843877#3 894843877#5 894843877#6 894843877#7 -690613619#1 -690613619#0 -690613617 -918082989#1 -918082989#0 -879172095 -879172096 -690613625#6 -690613625#5 -690613625#4 -690613625#3 -690613625#2 -690613625#1 -690613625#0 -651080014 -690613620#4 -690613620#3 -690613620#2 -690613620#1 -879177024#5 -879177024#4 -879177024#3 -879177024#2 -879177024#1 -111987010#2 -111987010#1 -111987010#0 -111987075#6 -111987075#5 -111987075#4 -111987075#3 -111987075#2 -111987075#1 -111987075#0 -879177025#3 -879177025#2 -642893603#1 -642893603#0 -810350239#2 -810350239#1 -810350239#0 -865122342 -872215578 -544489067#0 -879172125 -879172124 871213663#0 871213663#1 544489068#1 574917579#0 574917579#1 574917579#2 574917579#3 497834578 574917574#0 574917574#1 574917574#2" >
        <stop busStop="7081968088" duration="20" until="257.0"/> <!-- Ayala Malls Vermosa -->
    </route>
    <route id="pt_train_MSC:0" color="orange" edges="26601253 801444516#1 4086422#1 4086422#2 370439165#1 370439158#1 370439159 370439160 370439163 469390756#0 469390756#1 469390756#2 469390756#3 469390756#4 370439164#1 370439164#2 370439164#3 370439164#4 370439164#5 370439164#6 370439164#7 370439164#8 370439164#9 370439164#10 370439164#11" >
        <stop busStop="291723598" duration="20" until="106.0"/> <!-- Pandacan -->
        <stop busStop="709610674" duration="20" until="272.0"/> <!-- Paco -->
        <stop busStop="414567788" duration="20" until="385.0"/> <!-- San Andres -->
        <stop busStop="358845695" duration="20" until="501.0"/> <!-- Vito Cruz -->
        <stop busStop="3004596316" duration="20" until="707.0"/> <!-- Pasay Road -->
    </route>
    <route id="pt_train_MSC:1" color="orange" edges="370439173#0 370439173#1 370439173#2 370439173#3 370439173#4 370439173#5 370439173#6 370439173#7 370439173#8 370439173#9 370439173#10 370439173#11 469390758#1 469390758#2 469390758#3 469390758#4 370439170 370439169 370439167 370439166#0 370439166#1 370439174#1 370443332#1 370443332#2 801444517#1" >
        <stop busStop="3729120759" duration="20" until="104.0"/> <!-- Pasay Road -->
        <stop busStop="3741382299" duration="20" until="305.0"/> <!-- Vito Cruz -->
        <stop busStop="3741382298" duration="20" until="417.0"/> <!-- San Andres -->
        <stop busStop="3741382296" duration="20" until="534.0"/> <!-- Paco -->
        <stop busStop="3741382297" duration="20" until="696.0"/> <!-- Pandacan -->
    </route>
    <route id="pt_bus_DA:1" color="white" edges="544473026 1075241343 658739766" >
        <stop busStop="7081968088" duration="20" until="461.0"/> <!-- Ayala Malls Vermosa -->
    </route>
    <route id="pt_bus_408:0" color="white" edges="-834008930 834008929#1 48617531#0 48617531#1 158467708#0 158467708#1 158467708#2 158467708#3 158467708#4 158467708#5 834801542#0 834801542#1 834801542#2 834801542#3 799284234#0 799284234#1 799284234#3 799284234#4 799284234#5 799284234#6 799284234#7 49183939#0 49183939#1 832971263 -1067201914 -243476205#4 -243476205#3 -243476205#2 -243476205#1 -243476205#0 -832971262#4 -832971262#3 -832971262#1 -832971262#0 -243476212#1 -243476212#0 -243476207#3 -243476207#2 -243476207#1 -243476207#0 -48783180#3 -48783180#2 -48783180#1 -48783180#0 28295507#0 28295507#1 28295507#2 28295507#3 28295507#4 28295507#5 28295507#6 28295507#7 28295507#8 28295507#9 28295507#10 28295507#14 28295507#15 28295507#16 28295507#18 28295507#19 28295507#20 28295507#21 28295507#22 28295507#23 28295507#26 28295507#27 28295507#28 28295507#29 28295507#30 28295507#32 28295507#33 28295507#34 28295507#35 28295507#36 28295507#37 28295507#39 28295507#40 28295507#41 28295507#43 158180751#0 158180751#1 723125191 -1251616430 -1251616429 -62282930#4 -62282930#3 -62282930#2 -62282930#1 -834008931 156424405 -896990575#1 -896990575#0 -859512459#2 -859512459#1 -859512459#0 -859509998#3 -859509998#2 -859509998#1 -859509998#0 -859509997 -23379867#4 -23379867#3 -23379867#2 -23379867#1 -23379867#0 -23379743#0 637451719#13 637451719#14 242856814#0 242856814#1 242856814#2 242856810#1 242856810#2 242856810#3 242856810#4 242856810#5 23296802" >
        <stop busStop="7785509614" duration="20" until="574.0"/> <!-- Venice/BF International Central -->
    </route>
    <route id="pt_bus_DA:0" color="white" edges="564378177#0 1054692374 580823651 665214732#0 665214732#1 665214722 665214720 1059672666 180087572 1059672665 1059672664#0 1059672664#1 1059676185 1033158925#0 1033158925#1 366949696 561748189 573710409#0 651080002 683268248#1 183690512#3 183690512#5 183690512#6 183690512#7 183690512#8 183690512#9 580815652 183687104#1 183687104#3 183679858#1 1088538600 134126592#0 134126592#1 134126592#2 134126592#3 183679855#0 183679855#2 183679855#3 183679855#4 568992325 180101272 180101273 665790984 665790986#1 665794039#0 665794039#1 573710378" >
        <stop busStop="9691921084" duration="20" until="345.0"/> <!-- Springville -->
    </route>
    <route id="pt_bus_27:0" edges="26944682#0 26944682#4 26944682#7 26944682#8 26944682#9 26944682#10 26944682#11 26944682#12 26944682#14 26944682#17 712245739#1 657808643 564298126#0 564298126#1 564298126#2 564298126#3 564298126#4 564298126#6 564298126#7 564298126#11 564298126#14 712245744#0 564298119#1 564298119#2 657808646 560539701#0 200093474#0 200093474#1 200093474#2 200093474#3 200093474#4 200093474#6 574220655#1 574220655#2 574220655#4 23959414 306636445 653015388 272985473 564298160 555020929 107773896 555020925#0 555020925#1 734379942#0 734379942#1 23959380 724670137 22730660 724670138 22730634 22730634-AddedOffRampEdge 555020891 568975575#0 568975575#1 555020886 575293226#0 575293226#1 563743939 708734828-AddedOnRampEdge 708734828 699824385 4486320 856789357 1210746304 856800834 687100203 635697021 42059266 644424827#0 644424827#1 644424827#2 644424827#3 644424826#0 644424826#1 644424826#2 645165795 4209096#0 4209096#1 643308212#0 567601664 990459277#0 990459277#1 990459277#2 625056988#0 625056988#1 625056986 625056990 644424828" >
        <stop busStop="7674694069" duration="20" until="58.0"/> <!-- Niog -->
    </route>
    <route id="pt_bus_NDTSC_Jeepney:_WalterMart_Dasmariñas_→_DBB-C:0" edges="52977451 680832200 563500190 544437614#0 544437614#1 544437614#2 544437614#3 544437614#4 544437614#5 728932386#0 584296025 728932387 584296024 555235376 570931376#0 570931376#1 570931376#2 570931376#3 570931376#4 570931376#5 570931376#6 570931376#7 544437611 570931371 544437612 1037463429 565845044#0 584296034 561795329#0 561795329#1 561795329#2 561795329#3 544439819 565845051 574634927 559462975 583653446#0 583653446#1 583653446#2 559462974 561795324 872732762#1 -240379330#3 -240379334 894466043 976224822#1 976224823 91875570 90967348#1 878501729#0 878501729#1 878501729#2 878501729#3 872732744#2 872732744#3 872732744#4 872732744#5 872732744#6 872732747#1" >
        <stop busStop="5416556656" duration="20" until="49.0"/> <!-- DLSU-D Gate 3 -->
        <stop busStop="5585400846" duration="20" until="182.0"/> <!-- Dasmariñas 2 Central School -->
        <stop busStop="6829233694" duration="20" until="238.0"/> <!-- Dasmariñas Integrated High School -->
        <stop busStop="5580120050" duration="20" until="295.0"/> <!-- DASCA -->
        <stop busStop="6829233695" duration="20" until="345.0"/> <!-- Saint Paul Medical Center -->
        <stop busStop="5416556654" duration="20" until="401.0"/> <!-- DLSU-D Gate 1 -->
    </route>
    <route id="pt_bus_Pasay_Baguio_Express:0" edges="-1176763754 911395417 911395420#1 1176763760 -225366323#0 -225366324#1 -225366324#0 28501047 -1077732080 -1077732073#0 -1077732072#1 -1077732071 -1077732070 -1077732069 -1077732068#2 -1077732068#0 -1077732067#0 -1077732066#1 -1077732066#0 -225366355#2 -225366355#0 -225366358#4 -225366358#3 -225366358#2 -225366358#1 -225366358#0 -78661217#1 -78661217#0 225366318 225366321#1 225366321#2 225366321#3 225366321#4 763206358#0 763206358#1 -19827399 -19827397 -758779649#1 -758779649#0 -760603953#2 -760603953#1 -760603953#0 -134351500#4 -134351500#1 -762325825 -111560723 -4263627#1 22694439 242803598#0 242803598#1 671028125 1077804241 1077804240 575716484 758153180#0-AddedOnRampEdge 758153180#0 758153180#1 836401389 777206839#0 777206839#1-AddedOnRampEdge 777206839#1 777206839#1-AddedOffRampEdge 286897779#1 836401387 823810257 688065647 688065629 688065630 784737614" >
        <stop busStop="-255067127" duration="20" until="33.0"/> <!-- Victory Liner Pasay Terminal -->
    </route>
    <route id="pt_bus_29:1" edges="26944682#0 26944682#4 26944682#7 26944682#8 26944682#9 26944682#10 26944682#11 26944682#12 26944682#14 26944682#17 712245739#1 657808643 564298126#0 564298126#1 564298126#2 564298126#3 564298126#4 564298126#6 564298126#7 564298126#11 564298126#14 712245744#0 564298119#1 564298119#2 657808646 560539701#0 200093474#0 200093474#1 200093474#2 200093474#3 200093474#4 200093474#6 574220655#1 574220655#2 574220655#4 23959414 306636445 653015388 272985473 564298160 555020929 107773896 555020925#0 555020925#1 734379942#0 734379942#1 23959380 724670137 22730660 724670138 22730634 22730634-AddedOffRampEdge 555020891 568975575#0 568975575#1 555020886 575293226#0 575293226#1 563743939 708734828-AddedOnRampEdge 708734828 699824385 4486320 856789357 1210746304 856800834 687100203 635697021 42059266 644424827#0 644424827#1 644424827#2 644424827#3 644424826#0 644424826#1 644424826#2 645165795 4209096#0 4209096#1 643308212#0 567601664 990459277#0 990459277#1 990459277#2 625056988#0 625056988#1 625056986 625056990 644424828" >
        <stop busStop="7674694069" duration="20" until="58.0"/> <!-- Niog -->
    </route>
    <route id="pt_train_MSC_1908+_MSC_2008:0" color="255,102,0" edges="26601253 801444516#1 4086422#1 4086422#2 370439165#1 370439158#1 370439159 370439160 370439163 469390756#0 469390756#1 469390756#2 469390756#3 469390756#4 370439164#1 370439164#2 370439164#3 370439164#4 370439164#5 370439164#6 370439164#7 370439164#8 370439164#9 370439164#10 370439164#11" >
        <stop busStop="291723598" duration="20" until="106.0"/> <!-- Pandacan -->
        <stop busStop="709610674" duration="20" until="272.0"/> <!-- Paco -->
        <stop busStop="414567788" duration="20" until="385.0"/> <!-- San Andres -->
        <stop busStop="358845695" duration="20" until="501.0"/> <!-- Vito Cruz -->
        <stop busStop="3004596316" duration="20" until="707.0"/> <!-- Pasay Road -->
    </route>