<?xml version="1.0" encoding="UTF-8"?>

<!-- generated on 2024-03-16 09:11:10 by Eclipse SUMO netconvert Version 1.19.0
<configuration xmlns:xsi="http://www.w3.org/2001/XMLSchema-instance" xsi:noNamespaceSchemaLocation="http://sumo.dlr.de/xsd/netconvertConfiguration.xsd">

    <input>
        <type-files value="${SUMO_HOME}/data/typemap/osmNetconvert.typ.xml,${SUMO_HOME}/data/typemap/osmNetconvertUrbanDe.typ.xml,${SUMO_HOME}/data/typemap/osmNetconvertPedestrians.typ.xml,${SUMO_HOME}/data/typemap/osmNetconvertBicycle.typ.xml,${SUMO_HOME}/data/typemap/osmNetconvertAerialway.typ.xml"/>
        <osm-files value="osm_bbox.osm.xml.gz"/>
    </input>

    <output>
        <output-file value="osm.net.xml.gz"/>
        <output.street-names value="true"/>
        <output.original-names value="true"/>
        <ptstop-output value="osm_stops.add.xml"/>
        <ptline-output value="osm_ptlines.xml"/>
    </output>

    <projection>
        <proj.utm value="true"/>
    </projection>

    <processing>
        <geometry.remove value="true"/>
        <roundabouts.guess value="true"/>
    </processing>

    <tls_building>
        <tls.discard-simple value="true"/>
        <tls.join value="true"/>
        <tls.guess-signals value="true"/>
        <tls.default-type value="actuated"/>
    </tls_building>

    <ramp_guessing>
        <ramps.guess value="true"/>
    </ramp_guessing>

    <junctions>
        <junctions.join value="true"/>
        <junctions.corner-detail value="5"/>
    </junctions>

    <pedestrian>
        <crossings.guess value="true"/>
    </pedestrian>

    <railway>
        <railway.topology.repair value="true"/>
    </railway>

    <formats>
        <osm.bike-access value="true"/>
        <osm.sidewalks value="true"/>
    </formats>

</configuration>
-->

<additional xmlns:xsi="http://www.w3.org/2001/XMLSchema-instance" xsi:noNamespaceSchemaLocation="http://sumo.dlr.de/xsd/additional_file.xsd">
    <busStop id="-10053766604" name="United Nations" lane="-576201878#1_0" startPos="882.45" endPos="1082.45" friendlyPos="true">
        <access lane="1072400004_0" pos="15.36" length="18.05" friendlyPos="1"/>
        <access lane="1072400005_0" pos="8.83" length="29.62" friendlyPos="1"/>
        <access lane="750959855#0_0" pos="0.20" length="35.38" friendlyPos="1"/>
        <access lane="915738775#1_0" pos="6.75" length="27.12" friendlyPos="1"/>
        <access lane="915741887#1_0" pos="11.08" length="18.33" friendlyPos="1"/>
    </busStop>
    <busStop id="-10053766605" name="Pedro Gil" lane="-576201878#1_0" startPos="1647.32" endPos="1847.32" friendlyPos="true">
        <access lane="1072399998#1_0" pos="29.65" length="27.18" friendlyPos="1"/>
        <access lane="1072399998#2_0" pos="4.70" length="22.96" friendlyPos="1"/>
        <access lane="1074271593_0" pos="0.00" length="24.89" friendlyPos="1"/>
        <access lane="1074271595_0" pos="6.13" length="19.25" friendlyPos="1"/>
        <access lane="492215391#1_0" pos="16.80" length="16.46" friendlyPos="1"/>
    </busStop>
    <busStop id="-10053766606" name="Quirino" lane="-576201878#1_0" startPos="2448.84" endPos="2648.84" friendlyPos="true">
        <access lane="145658056_0" pos="0.00" length="47.29" friendlyPos="1"/>
        <access lane="795091288#6_0" pos="0.00" length="45.52" friendlyPos="1"/>
        <access lane="912581993_0" pos="4.40" length="29.73" friendlyPos="1"/>
        <access lane="912581994_0" pos="0.96" length="45.33" friendlyPos="1"/>
        <access lane="915136188#1_0" pos="2.08" length="47.65" friendlyPos="1"/>
    </busStop>
    <busStop id="-10053766607" name="Vito Cruz" lane="-576201878#1_0" startPos="3271.97" endPos="3471.97" friendlyPos="true">
        <access lane="-910898018#0_0" pos="3.74" length="24.41" friendlyPos="1"/>
        <access lane="1078061437_0" pos="0.00" length="26.15" friendlyPos="1"/>
        <access lane="1196005703#4_0" pos="0.20" length="23.38" friendlyPos="1"/>
        <access lane="1196005703#5_0" pos="1.11" length="18.98" friendlyPos="1"/>
        <access lane="653015370#0_0" pos="93.99" length="17.49" friendlyPos="1"/>
    </busStop>
    <busStop id="-11068112569" name="Taft Avenue" lane="-850328347#2_0" startPos="3.81" endPos="203.81" friendlyPos="true">
        <access lane="-22761597#1_0" pos="18.99" length="25.05" friendlyPos="1"/>
        <access lane="-909967551_0" pos="42.39" length="19.30" friendlyPos="1"/>
        <access lane="1065669332#13_0" pos="139.32" length="29.23" friendlyPos="1"/>
        <access lane="37935481#12_0" pos="32.82" length="37.96" friendlyPos="1"/>
        <access lane="909967551_0" pos="139.53" length="44.28" friendlyPos="1"/>
    </busStop>
    <busStop id="-255067127" name="Victory Liner Pasay Terminal" lane="-1176763754_0" startPos="0.00" endPos="15.00" friendlyPos="true" lines="Pasay Baguio Express Pasay Baguio Inner City"/>
    <busStop id="-325785397" name="Victoria Reyes" lane="-863233791#2_0" startPos="47.35" endPos="62.35" friendlyPos="true" lines="PASIJODAI/MPTC/ZIDGPPTC Jeepney: Paliparan Site → Downtown/Bayan">
        <access lane="-545214973#1_0" pos="0.00" length="93.99" friendlyPos="1"/>
        <access lane="153750434#1_0" pos="81.35" length="55.67" friendlyPos="1"/>
        <access lane="545214973#0_0" pos="73.37" length="93.96" friendlyPos="1"/>
        <access lane="545214973#1_0" pos="0.20" length="88.38" friendlyPos="1"/>
        <access lane="545214975_0" pos="136.84" length="81.29" friendlyPos="1"/>
    </busStop>
    <busStop id="-34012374" name="EDSA" lane="-635697013_0" startPos="333.28" endPos="533.28" friendlyPos="true">
        <access lane="576201873_0" pos="0.00" length="79.67" friendlyPos="1"/>
        <access lane="580387422_0" pos="10.55" length="59.34" friendlyPos="1"/>
        <access lane="580387541_0" pos="11.92" length="74.43" friendlyPos="1"/>
        <access lane="665068135#0_0" pos="85.07" length="12.62" friendlyPos="1"/>
        <access lane="777923706#2_0" pos="124.35" length="66.06" friendlyPos="1"/>
    </busStop>
    <busStop id="-4475471872" name="Baclaran" lane="-420302935_0" startPos="0.00" endPos="22.77" friendlyPos="true">
        <access lane="37935481#1_0" pos="61.84" length="14.22" friendlyPos="1"/>
        <access lane="866465123_0" pos="0.10" length="14.93" friendlyPos="1"/>
        <access lane="866465124#2_0" pos="17.62" length="19.72" friendlyPos="1"/>
        <access lane="866465126#0_0" pos="92.39" length="11.93" friendlyPos="1"/>
        <access lane="878671426_0" pos="1.45" length="19.77" friendlyPos="1"/>
    </busStop>
    <busStop id="-4475471873" name="Baclaran" lane="-420302934#0_0" startPos="0.00" endPos="134.04" friendlyPos="true">
        <access lane="1123774223_0" pos="2.74" length="9.56" friendlyPos="1"/>
        <access lane="37935481#0_0" pos="38.20" length="19.91" friendlyPos="1"/>
        <access lane="866465123_0" pos="81.45" length="19.38" friendlyPos="1"/>
        <access lane="866465126#0_0" pos="0.00" length="16.91" friendlyPos="1"/>
        <access lane="918503355#1_0" pos="30.35" length="18.67" friendlyPos="1"/>
    </busStop>
    <busStop id="-4475471874" name="Gil Puyat" lane="-635697013_0" startPos="2045.26" endPos="2245.26" friendlyPos="true">
        <access lane="1072110736_0" pos="11.45" length="31.77" friendlyPos="1"/>
        <access lane="1209626631#1_0" pos="2.35" length="35.07" friendlyPos="1"/>
        <access lane="671028138#0_0" pos="0.00" length="38.09" friendlyPos="1"/>
        <access lane="671028138#1_0" pos="0.00" length="40.68" friendlyPos="1"/>
        <access lane="911379960#2_0" pos="0.57" length="36.54" friendlyPos="1"/>
    </busStop>
    <busStop id="-4475471875" name="Libertad" lane="-635697013_0" startPos="1322.84" endPos="1522.84" friendlyPos="true">
        <access lane="-1078234911_0" pos="110.76" length="20.52" friendlyPos="1"/>
        <access lane="1078234912_0" pos="0.00" length="21.74" friendlyPos="1"/>
        <access lane="1078234918#2_0" pos="40.97" length="26.94" friendlyPos="1"/>
        <access lane="799270933_0" pos="0.00" length="7.31" friendlyPos="1"/>
        <access lane="799270934_0" pos="0.00" length="4.87" friendlyPos="1"/>
    </busStop>
    <busStop id="-5191404483" name="United Nations" lane="-784669682#3_0" startPos="3048.10" endPos="3248.10" friendlyPos="true">
        <access lane="1072400004_0" pos="14.38" length="23.70" friendlyPos="1"/>
        <access lane="1072400005_0" pos="8.83" length="32.35" friendlyPos="1"/>
        <access lane="750959855#0_0" pos="0.20" length="32.91" friendlyPos="1"/>
        <access lane="915738775#1_0" pos="5.95" length="21.41" friendlyPos="1"/>
        <access lane="915741887#1_0" pos="11.97" length="24.01" friendlyPos="1"/>
    </busStop>
    <busStop id="-5191404484" name="Pedro Gil" lane="-784669682#3_0" startPos="2282.75" endPos="2482.75" friendlyPos="true">
        <access lane="1072399998#1_0" pos="29.65" length="22.87" friendlyPos="1"/>
        <access lane="1072399998#2_0" pos="4.18" length="18.26" friendlyPos="1"/>
        <access lane="1074271593_0" pos="0.00" length="20.37" friendlyPos="1"/>
        <access lane="1074271595_0" pos="5.63" length="14.55" friendlyPos="1"/>
        <access lane="492215391#1_0" pos="17.28" length="21.16" friendlyPos="1"/>
    </busStop>
    <busStop id="-5191404485" name="Quirino" lane="-784669682#3_0" startPos="1480.58" endPos="1680.58" friendlyPos="true">
        <access lane="795091288#6_0" pos="0.00" length="41.06" friendlyPos="1"/>
        <access lane="912581993_0" pos="4.40" length="33.53" friendlyPos="1"/>
        <access lane="912581994_0" pos="0.96" length="41.68" friendlyPos="1"/>
        <access lane="915136188#1_0" pos="2.08" length="43.84" friendlyPos="1"/>
        <access lane="915136188#2_0" pos="0.00" length="45.93" friendlyPos="1"/>
    </busStop>
    <busStop id="-5191404486" name="Vito Cruz" lane="-784669682#3_0" startPos="658.37" endPos="858.37" friendlyPos="true">
        <access lane="-910898018#0_0" pos="3.74" length="18.86" friendlyPos="1"/>
        <access lane="1078061437_0" pos="0.00" length="20.89" friendlyPos="1"/>
        <access lane="1196005703#4_0" pos="0.20" length="18.61" friendlyPos="1"/>
        <access lane="1196005703#5_0" pos="0.69" length="13.39" friendlyPos="1"/>
        <access lane="653015370#0_0" pos="94.41" length="23.09" friendlyPos="1"/>
    </busStop>
    <busStop id="-5397312963" name="Taft Avenue" lane="-465647740#2_0" startPos="61.59" endPos="261.59" friendlyPos="true">
        <access lane="-22761597#1_0" pos="19.12" length="12.22" friendlyPos="1"/>
        <access lane="-909967551_0" pos="42.27" length="32.14" friendlyPos="1"/>
        <access lane="1065669332#13_0" pos="139.37" length="42.07" friendlyPos="1"/>
        <access lane="22761597#1_0" pos="32.72" length="37.19" friendlyPos="1"/>
        <access lane="37935481#12_0" pos="32.69" length="25.12" friendlyPos="1"/>
    </busStop>
    <busStop id="-5521709877" name="Redemptorist" lane="-420302943#0_0" startPos="546.46" endPos="746.46" friendlyPos="true">
        <access lane="-245317915#0_0" pos="136.29" length="40.52" friendlyPos="1"/>
        <access lane="-355084529_0" pos="130.57" length="61.26" friendlyPos="1"/>
        <access lane="1074926268_0" pos="44.07" length="84.00" friendlyPos="1"/>
        <access lane="711708389#3_0" pos="192.88" length="21.55" friendlyPos="1"/>
        <access lane="711708392_0" pos="46.18" length="10.74" friendlyPos="1"/>
    </busStop>
    <busStop id="-5558817863" name="Bautista" lane="-635697023_0" startPos="66.62" endPos="81.62" friendlyPos="true" lines="PASIJODAI/MPTC/ZIDGPPTC Jeepney: Paliparan Site → Downtown/Bayan">
        <access lane="-581552251_0" pos="0.00" length="60.99" friendlyPos="1"/>
        <access lane="-631571426_0" pos="0.00" length="96.31" friendlyPos="1"/>
        <access lane="581552251_0" pos="78.55" length="65.60" friendlyPos="1"/>
        <access lane="631571426_0" pos="26.30" length="91.51" friendlyPos="1"/>
        <access lane="92188725_0" pos="0.00" length="116.53" friendlyPos="1"/>
    </busStop>
    <busStop id="-5866984085" name="Asia World" lane="-420302943#0_0" startPos="2997.77" endPos="3197.77" friendlyPos="true">
        <access lane="-856486893#0_0" pos="277.90" length="81.31" friendlyPos="1"/>
        <access lane="1086702084_0" pos="22.72" length="75.16" friendlyPos="1"/>
        <access lane="1164161722_0" pos="0.00" length="73.50" friendlyPos="1"/>
        <access lane="1164161724_0" pos="8.49" length="74.46" friendlyPos="1"/>
        <access lane="666471104_0" pos="62.74" length="42.52" friendlyPos="1"/>
    </busStop>
    <busStop id="-5940196988" name="Asia World" lane="-678960761_0" startPos="3499.43" endPos="3699.43" friendlyPos="true">
        <access lane="-1117935207#0_0" pos="0.00" length="32.68" friendlyPos="1"/>
        <access lane="-1117935207#1_0" pos="0.00" length="28.34" friendlyPos="1"/>
        <access lane="-667607219#0_0" pos="106.81" length="38.52" friendlyPos="1"/>
        <access lane="1117935207#0_0" pos="0.20" length="36.67" friendlyPos="1"/>
        <access lane="1117935207#1_0" pos="0.34" length="32.86" friendlyPos="1"/>
    </busStop>
    <busStop id="-6160787431" name="St. Dominic College" lane="-564298126#11_0" startPos="4.53" endPos="19.53" friendlyPos="true" lines="SZ"/>
    <busStop id="-6357368900" name="Redemptorist" lane="-678960761_0" startPos="6069.99" endPos="6269.99" friendlyPos="true">
        <access lane="-245317915#0_0" pos="135.82" length="46.56" friendlyPos="1"/>
        <access lane="-355084529_0" pos="131.09" length="67.30" friendlyPos="1"/>
        <access lane="1074926268_0" pos="44.07" length="86.44" friendlyPos="1"/>
        <access lane="711708389#3_0" pos="193.43" length="27.59" friendlyPos="1"/>
        <access lane="711708392_0" pos="46.66" length="16.79" friendlyPos="1"/>
    </busStop>
    <busStop id="-6656722467" name="MOL Magsaysay Maritime Academy" lane="-708397422_2" startPos="15.99" endPos="30.99" friendlyPos="true"/>
    <busStop id="-7330612086" name="Central Terminal" lane="-784669682#2_0" startPos="53.07" endPos="253.07" friendlyPos="true">
        <access lane="-693154768#0_0" pos="49.94" length="46.79" friendlyPos="1"/>
        <access lane="27323159#2_0" pos="38.52" length="102.80" friendlyPos="1"/>
        <access lane="693154762_0" pos="0.00" length="61.56" friendlyPos="1"/>
        <access lane="693154768#0_0" pos="0.00" length="48.85" friendlyPos="1"/>
        <access lane="925206344_0" pos="80.07" length="65.70" friendlyPos="1"/>
    </busStop>
    <busStop id="-7330612087" name="Central Terminal" lane="-576201878#2_0" startPos="0.00" endPos="200.00" friendlyPos="true">
        <access lane="-834717123#1_0" pos="0.00" length="44.12" friendlyPos="1"/>
        <access lane="-89546103_0" pos="103.46" length="42.45" friendlyPos="1"/>
        <access lane="769206227#3_0" pos="27.19" length="69.75" friendlyPos="1"/>
        <access lane="834717123#1_0" pos="35.22" length="46.90" friendlyPos="1"/>
        <access lane="89546103_0" pos="0.00" length="40.00" friendlyPos="1"/>
    </busStop>
    <busStop id="-7461224923" name="MIA Road" lane="-678960761_0" startPos="4637.51" endPos="4837.51" friendlyPos="true">
        <access lane="-333015189#1_0" pos="24.00" length="67.95" friendlyPos="1"/>
        <access lane="333015189#1_0" pos="0.00" length="51.37" friendlyPos="1"/>
        <access lane="621030734#2_0" pos="0.20" length="50.07" friendlyPos="1"/>
        <access lane="708396592#3_0" pos="25.53" length="55.19" friendlyPos="1"/>
        <access lane="708396592#4_0" pos="15.98" length="42.04" friendlyPos="1"/>
    </busStop>
    <busStop id="-7569408464" name="Doroteo Jose" lane="-576201878#4_0" startPos="5504.59" endPos="5704.59" friendlyPos="true"/>
    <busStop id="-7569408465" name="Bambang" lane="-576201878#4_0" startPos="4864.07" endPos="5064.07" friendlyPos="true"/>
    <busStop id="-7569408466" name="Tayuman" lane="-576201878#4_0" startPos="4248.74" endPos="4448.74" friendlyPos="true"/>
    <busStop id="-7569408467" name="Blumentritt" lane="-576201878#4_0" startPos="3567.32" endPos="3767.32" friendlyPos="true"/>
    <busStop id="-7569408470" name="Abad Santos" lane="-576201878#4_0" startPos="2644.38" endPos="2844.38" friendlyPos="true"/>
    <busStop id="-7569408477" name="R. Papa" lane="-576201878#4_0" startPos="1986.47" endPos="2186.47" friendlyPos="true"/>
    <busStop id="-7569408478" name="5th Avenue" lane="-576201878#4_0" startPos="1032.77" endPos="1232.77" friendlyPos="true"/>
    <busStop id="-7569408480" name="Yamaha Monumento" lane="-576201878#4_0" startPos="0.00" endPos="200.00" friendlyPos="true"/>
    <busStop id="-9371316870" name="MIA Road" lane="-420302943#0_0" startPos="1881.34" endPos="2081.34" friendlyPos="true">
        <access lane="-901569486#4_0" pos="55.18" length="102.93" friendlyPos="1"/>
        <access lane="-929607373_0" pos="0.00" length="116.20" friendlyPos="1"/>
        <access lane="572092552#6_0" pos="77.78" length="108.19" friendlyPos="1"/>
        <access lane="901569486#3_0" pos="6.34" length="114.60" friendlyPos="1"/>
        <access lane="901569486#4_0" pos="11.92" length="96.46" friendlyPos="1"/>
    </busStop>
    <busStop id="10023059760" name="Sofitel Philippine Plaza" lane="4304923#2_1" startPos="44.99" endPos="59.99" friendlyPos="true" lines="403"/>
    <busStop id="10039180409" name="PICC" lane="643285483_0" startPos="12.51" endPos="27.51" friendlyPos="true">
        <access lane="-58586725#0_0" pos="17.11" length="45.22" friendlyPos="1"/>
        <access lane="-712595005_0" pos="8.76" length="43.80" friendlyPos="1"/>
        <access lane="1096264481#1_0" pos="93.24" length="18.03" friendlyPos="1"/>
        <access lane="643285484_0" pos="10.63" length="35.88" friendlyPos="1"/>
        <access lane="712595005_0" pos="67.12" length="39.00" friendlyPos="1"/>
    </busStop>
    <busStop id="10053766604" name="United Nations" lane="576201878#1_0" startPos="3034.77" endPos="3234.77" friendlyPos="true" lines="1">
        <access lane="1072400004_0" pos="15.36" length="18.05" friendlyPos="1"/>
        <access lane="1072400005_0" pos="8.83" length="29.62" friendlyPos="1"/>
        <access lane="750959855#0_0" pos="0.20" length="35.38" friendlyPos="1"/>
        <access lane="915738775#1_0" pos="6.75" length="27.12" friendlyPos="1"/>
        <access lane="915741887#1_0" pos="11.08" length="18.33" friendlyPos="1"/>
    </busStop>
    <busStop id="10053766605" name="Pedro Gil" lane="576201878#1_0" startPos="2269.90" endPos="2469.90" friendlyPos="true" lines="1">
        <access lane="1072399998#1_0" pos="29.65" length="27.18" friendlyPos="1"/>
        <access lane="1072399998#2_0" pos="4.70" length="22.96" friendlyPos="1"/>
        <access lane="1074271593_0" pos="0.00" length="24.89" friendlyPos="1"/>
        <access lane="1074271595_0" pos="6.13" length="19.25" friendlyPos="1"/>
        <access lane="492215391#1_0" pos="16.80" length="16.46" friendlyPos="1"/>
    </busStop>
    <busStop id="10053766606" name="Quirino" lane="576201878#1_0" startPos="1468.39" endPos="1668.39" friendlyPos="true" lines="1">
        <access lane="145658056_0" pos="0.00" length="47.29" friendlyPos="1"/>
        <access lane="795091288#6_0" pos="0.00" length="45.52" friendlyPos="1"/>
        <access lane="912581993_0" pos="4.40" length="29.73" friendlyPos="1"/>
        <access lane="912581994_0" pos="0.96" length="45.33" friendlyPos="1"/>
        <access lane="915136188#1_0" pos="2.08" length="47.65" friendlyPos="1"/>
    </busStop>
    <busStop id="10053766607" name="Vito Cruz" lane="576201878#1_0" startPos="645.25" endPos="845.25" friendlyPos="true" lines="1">
        <access lane="-910898018#0_0" pos="3.74" length="24.41" friendlyPos="1"/>
        <access lane="1078061437_0" pos="0.00" length="26.15" friendlyPos="1"/>
        <access lane="1196005703#4_0" pos="0.20" length="23.38" friendlyPos="1"/>
        <access lane="1196005703#5_0" pos="1.11" length="18.98" friendlyPos="1"/>
        <access lane="653015370#0_0" pos="93.99" length="17.49" friendlyPos="1"/>
    </busStop>
    <busStop id="10053766608" name="Gil Puyat" lane="809323011_0" startPos="2069.65" endPos="2269.65" friendlyPos="true" lines="1">
        <access lane="1072110736_0" pos="11.45" length="33.88" friendlyPos="1"/>
        <access lane="1209626631#1_0" pos="2.35" length="37.50" friendlyPos="1"/>
        <access lane="671028138#0_0" pos="0.00" length="35.61" friendlyPos="1"/>
        <access lane="671028138#1_0" pos="0.00" length="37.59" friendlyPos="1"/>
        <access lane="911379960#2_0" pos="0.57" length="38.88" friendlyPos="1"/>
    </busStop>
    <busStop id="10053766609" name="Libertad" lane="809323011_0" startPos="1347.18" endPos="1547.18" friendlyPos="true" lines="1">
        <access lane="-1078234911_0" pos="110.76" length="16.01" friendlyPos="1"/>
        <access lane="1078234912_0" pos="0.00" length="17.40" friendlyPos="1"/>
        <access lane="1078234918#2_0" pos="40.97" length="31.90" friendlyPos="1"/>
        <access lane="799270933_0" pos="1.35" length="6.99" friendlyPos="1"/>
        <access lane="799270934_0" pos="1.22" length="4.85" friendlyPos="1"/>
    </busStop>
    <busStop id="10151210370" name="DFA (temp)" lane="202073057#3_1" startPos="0.00" endPos="14.43" friendlyPos="true" lines="14 4 1"/>
    <busStop id="10273071042" name="Gil Puyat/Roxas Boulevard" lane="676131026#0_1" startPos="4.47" endPos="19.47" friendlyPos="true"/>
    <busStop id="10297768870" name="Tramo" lane="909967549_0" startPos="392.77" endPos="407.77" friendlyPos="true">
        <access lane="-351863414#5_0" pos="0.00" length="15.94" friendlyPos="1"/>
        <access lane="-351863414#6_0" pos="59.94" length="17.44" friendlyPos="1"/>
        <access lane="1065669332#11_0" pos="11.95" length="23.19" friendlyPos="1"/>
        <access lane="1126139838_0" pos="0.00" length="18.38" friendlyPos="1"/>
        <access lane="1126139839_0" pos="0.00" length="0.00" friendlyPos="1"/>
    </busStop>
    <busStop id="1044540481" name="Pintong Gubat Elementary School" lane="1088187929#0_0" startPos="78.82" endPos="93.82" friendlyPos="true">
        <access lane="-413829178_0" pos="50.18" length="36.89" friendlyPos="1"/>
        <access lane="-969545375_0" pos="0.00" length="16.81" friendlyPos="1"/>
        <access lane="413829178_0" pos="0.00" length="32.31" friendlyPos="1"/>
        <access lane="584825954_0" pos="14.61" length="146.96" friendlyPos="1"/>
        <access lane="969545375_0" pos="34.18" length="21.28" friendlyPos="1"/>
    </busStop>
    <busStop id="10673347229" name="Pasong Buaya" lane="180101270#11_0" startPos="76.43" endPos="91.43" friendlyPos="true">
        <access lane="-1180263734_0" pos="0.00" length="69.02" friendlyPos="1"/>
        <access lane="1180263732_0" pos="36.14" length="89.97" friendlyPos="1"/>
        <access lane="1180263734_0" pos="15.82" length="73.63" friendlyPos="1"/>
        <access lane="894886074#1_0" pos="31.94" length="45.06" friendlyPos="1"/>
        <access lane="894886075_0" pos="0.00" length="40.64" friendlyPos="1"/>
    </busStop>
    <busStop id="10673347230" name="Summer Pointe" lane="180101270#3_0" startPos="0.00" endPos="0.20" friendlyPos="true">
        <access lane="-150904259_0" pos="33.68" length="9.61" friendlyPos="1"/>
        <access lane="-934550605_0" pos="0.00" length="8.88" friendlyPos="1"/>
        <access lane="1063003211_0" pos="0.20" length="9.60" friendlyPos="1"/>
        <access lane="1180267902_0" pos="0.00" length="11.46" friendlyPos="1"/>
        <access lane="934550605_0" pos="0.20" length="10.86" friendlyPos="1"/>
    </busStop>
    <busStop id="10673347231" name="Summer Pointe" lane="183679855#3_0" startPos="0.00" endPos="0.20" friendlyPos="true">
        <access lane="-150904259_0" pos="33.68" length="27.48" friendlyPos="1"/>
        <access lane="-934550605_0" pos="0.20" length="9.07" friendlyPos="1"/>
        <access lane="1063003211_0" pos="0.00" length="9.60" friendlyPos="1"/>
        <access lane="1180267902_0" pos="0.00" length="28.20" friendlyPos="1"/>
        <access lane="934550605_0" pos="0.00" length="10.96" friendlyPos="1"/>
    </busStop>
    <busStop id="10673347232" name="Pasong Buaya" lane="134126592#0_0" startPos="26.55" endPos="41.55" friendlyPos="true" lines="MetroExpress Modern Jeepney: SoMo → Vista Mall General Trias">
        <access lane="-1180263734_0" pos="0.00" length="67.64" friendlyPos="1"/>
        <access lane="1180263732_0" pos="36.14" length="83.31" friendlyPos="1"/>
        <access lane="1180263734_0" pos="15.82" length="72.43" friendlyPos="1"/>
        <access lane="894886074#1_0" pos="31.78" length="40.72" friendlyPos="1"/>
        <access lane="894886075_0" pos="0.17" length="35.92" friendlyPos="1"/>
    </busStop>
    <busStop id="10917227317" name="Quinta" lane="1174906184_0" startPos="0.00" endPos="2.12" friendlyPos="true"/>
    <busStop id="11061344311" name="Pasay City Terminal" lane="667228840#2_0" startPos="60.88" endPos="75.88" friendlyPos="true">
        <access lane="1192229717_0" pos="0.00" length="70.29" friendlyPos="1"/>
        <access lane="1192229718_0" pos="0.00" length="76.94" friendlyPos="1"/>
        <access lane="167048240#1_0" pos="57.02" length="40.28" friendlyPos="1"/>
        <access lane="37927947#2_0" pos="68.58" length="4.97" friendlyPos="1"/>
        <access lane="665068135#3_0" pos="51.23" length="75.36" friendlyPos="1"/>
    </busStop>
    <busStop id="11068112569" name="Taft Avenue" lane="850328347#0_0" startPos="84.80" endPos="284.80" friendlyPos="true">
        <access lane="-22761597#1_0" pos="18.99" length="25.05" friendlyPos="1"/>
        <access lane="-909967551_0" pos="42.39" length="19.30" friendlyPos="1"/>
        <access lane="1065669332#13_0" pos="139.32" length="29.23" friendlyPos="1"/>
        <access lane="37935481#12_0" pos="32.82" length="37.96" friendlyPos="1"/>
        <access lane="909967551_0" pos="139.53" length="44.28" friendlyPos="1"/>
    </busStop>
    <busStop id="11472455881" name="Manila City Hall" lane="612736044_0" startPos="23.32" endPos="38.32" friendlyPos="true">
        <access lane="-331628862_0" pos="574.05" length="27.25" friendlyPos="1"/>
        <access lane="1261947456_0" pos="28.56" length="46.56" friendlyPos="1"/>
        <access lane="331628862_0" pos="118.52" length="30.25" friendlyPos="1"/>
        <access lane="48485221#0_0" pos="0.00" length="47.49" friendlyPos="1"/>
        <access lane="48485222_0" pos="24.77" length="14.00" friendlyPos="1"/>
    </busStop>
    <busStop id="1294039033" name="Viva Homes" lane="660352582#1_0" startPos="7.10" endPos="22.10" friendlyPos="true" lines="Minibus: SaveMore San Marino → Central Mall Dasmariñas 32 417">
        <access lane="1073851811#2_0" pos="0.20" length="29.00" friendlyPos="1"/>
        <access lane="1197045455#1_0" pos="29.19" length="21.99" friendlyPos="1"/>
        <access lane="1203003335#2_0" pos="0.00" length="27.20" friendlyPos="1"/>
        <access lane="645181686_0" pos="14.93" length="9.18" friendlyPos="1"/>
        <access lane="781309125#0_0" pos="0.00" length="11.70" friendlyPos="1"/>
    </busStop>
    <busStop id="1437699084" name="Paco Station" lane="28724490#4_0" startPos="0.00" endPos="25.00" friendlyPos="true" lines="T326"/>
    <busStop id="1641737148" name="NoMo" lane="813394288#1_0" startPos="3.60" endPos="18.60" friendlyPos="true">
        <access lane="1024685946#1_0" pos="8.47" length="46.92" friendlyPos="1"/>
        <access lane="1024685947_0" pos="0.00" length="22.68" friendlyPos="1"/>
        <access lane="1024685948#1_0" pos="0.00" length="37.04" friendlyPos="1"/>
        <access lane="813394293_0" pos="24.04" length="35.64" friendlyPos="1"/>
        <access lane="813394294#1_0" pos="11.07" length="26.30" friendlyPos="1"/>
    </busStop>
    <busStop id="1690194021" name="EDSA-Roxas Boulevard (southbound)" lane="156780851_0" startPos="12.20" endPos="37.20" friendlyPos="true"/>
    <busStop id="1700585946" name="Santa Maria Proper" lane="570407018#4_1" startPos="0.00" endPos="15.00" friendlyPos="true">
        <access lane="160100093#1_0" pos="194.40" length="53.06" friendlyPos="1"/>
        <access lane="544331595#2_0" pos="22.37" length="61.13" friendlyPos="1"/>
        <access lane="544331595#3_0" pos="6.71" length="53.50" friendlyPos="1"/>
        <access lane="544331595#4_0" pos="14.27" length="50.98" friendlyPos="1"/>
        <access lane="544331595#5_0" pos="0.00" length="62.33" friendlyPos="1"/>
    </busStop>
    <busStop id="1721748558" name="Ugnayang La Salle" lane="160100107#1_0" startPos="25.21" endPos="50.21" friendlyPos="true"/>
    <busStop id="1723298719" name="F.B. Harrison" lane="644875508#0_0" startPos="88.22" endPos="103.22" friendlyPos="true">
        <access lane="-931730433_0" pos="0.00" length="64.24" friendlyPos="1"/>
        <access lane="4248693#1_0" pos="38.07" length="66.21" friendlyPos="1"/>
        <access lane="4248693#2_0" pos="29.40" length="31.46" friendlyPos="1"/>
        <access lane="665068135#7_0" pos="78.23" length="51.11" friendlyPos="1"/>
        <access lane="931730433_0" pos="52.20" length="60.39" friendlyPos="1"/>
    </busStop>
    <busStop id="1730364974" name="MOA/South Wing Terminal" lane="1069926640#1_0" startPos="19.46" endPos="34.46" friendlyPos="true">
        <access lane="161031777#5_0" pos="2.76" length="9.87" friendlyPos="1"/>
        <access lane="161031777#6_0" pos="0.38" length="0.00" friendlyPos="1"/>
        <access lane="161031783#1_0" pos="32.28" length="6.99" friendlyPos="1"/>
        <access lane="707188465_0" pos="32.33" length="8.92" friendlyPos="1"/>
        <access lane="711928945_0" pos="0.00" length="12.26" friendlyPos="1"/>
    </busStop>
    <busStop id="1918134259" name="Lawton" lane="696675893_1" startPos="23.67" endPos="38.67" friendlyPos="true" lines="5">
        <access lane="1079257197_0" pos="23.12" length="48.16" friendlyPos="1"/>