<?xml version="1.0" encoding="UTF-8"?>

<!-- generated on 2024-03-16 09:11:50.231808 by $Id: ptlines2flows.py v1_3_1+0313-ccb31df3eb jakob.erdmann@dlr.de 2019-09-02 13:26:32 +0200 $ v1_19_0+0000-baa66a0f364
<configuration>
    <net-file value="C:\Users\MartinezKyle_\2024-03-16-09-09-15\osm.net.xml.gz"/>
    <ptlines-file value="C:\Users\MartinezKyle_\2024-03-16-09-09-15\osm_ptlines.xml"/>
    <ptstops-file value="C:\Users\MartinezKyle_\2024-03-16-09-09-15\osm_stops.add.xml"/>
    <output-file value="C:\Users\MartinezKyle_\2024-03-16-09-09-15\osm_pt.rou.xml"/>
    <stopinfos-file value="C:\Users\MartinezKyle_\2024-03-16-09-09-15\stopinfos.xml"/>
    <routes-file value="C:\Users\MartinezKyle_\2024-03-16-09-09-15\vehroutes.xml"/>
    <trips-file value="C:\Users\MartinezKyle_\2024-03-16-09-09-15\trips.trips.xml"/>
    <min-stops value="0"/>
    <extend-to-fringe value="True"/>
    <random-begin value="True"/>
    <seed value="42"/>
    <ignore-errors value="True"/>
    <vtype-prefix value="pt_"/>
    <verbose value="True"/>
</configuration>
-->

<routes xmlns:xsi="http://www.w3.org/2001/XMLSchema-instance" xsi:noNamespaceSchemaLocation="http://sumo.dlr.de/xsd/routes_file.xsd">
    <vType id="pt_bus" vClass="bus" speedFactor="0.95"/>
    <vType id="pt_tram" vClass="tram" speedFactor="1.0"/>
    <vType id="pt_train" vClass="rail"/>
    <vType id="pt_subway" vClass="rail_urban"/>
    <vType id="pt_light_rail" vClass="rail_urban"/>
    <vType id="pt_monorail" vClass="rail_urban"/>
    <vType id="pt_trolleybus" vClass="bus" speedFactor="0.95"/>
    <vType id="pt_minibus" vClass="bus" speedFactor="0.95"/>
    <vType id="pt_share_taxi" vClass="taxi" speedFactor="0.95"/>
    <vType id="pt_aerialway" vClass="rail_urban" length="2.5" width="2" personCapacity="4"/>
    <vType id="pt_ferry" vClass="ship"/>
    <trip id="0_train_SS:0" type="pt_train" depart="3.0" departLane="best" from="370439173#0" to="801444517#1">
        <stop busStop="3741382296" duration="30"/>
    </trip>
    <trip id="1_bus_27J:0" type="pt_bus" depart="15.0" departLane="best" from="645337993#0" to="-26944682#0">
        <stop busStop="5355789162" duration="30"/>
        <stop busStop="7674694074" duration="30"/>
    </trip>
    <trip id="2_bus_NDTSC_Jeepney:_DBB-C_→_Downtown/Bayan:0" type="pt_bus" depart="15.0" departLane="best" from="873444846" to="544447258">
        <stop busStop="5564014454" duration="30"/>
        <stop busStop="5520537026" duration="30"/>
        <stop busStop="5416556655" duration="30"/>
        <stop busStop="5580120051" duration="30"/>
        <stop busStop="6829323046" duration="30"/>
        <stop busStop="5395917506" duration="30"/>
        <stop busStop="5416556657" duration="30"/>
    </trip>
    <trip id="3_bus_NDTSC_Jeepney:_Downtown/Bayan_→_DBB-C:0" type="pt_bus" depart="17.0" departLane="best" from="52977451" to="872732747#1">
        <stop busStop="5416556656" duration="30"/>
        <stop busStop="5585400846" duration="30"/>
        <stop busStop="6829233694" duration="30"/>
        <stop busStop="5580120050" duration="30"/>
        <stop busStop="6829233695" duration="30"/>
        <stop busStop="5416556654" duration="30"/>
        <stop busStop="331291446" duration="30"/>
    </trip>
    <trip id="4_bus_27J:1" type="pt_bus" depart="19.0" departLane="best" from="26944682#0" to="644424828">
        <stop busStop="7674694069" duration="30"/>
    </trip>
    <trip id="5_bus_SZ:0" type="pt_bus" depart="27.0" departLane="best" from="26944682#0" to="245313306#3">
        <stop busStop="7674694069" duration="30"/>
    </trip>
    <trip id="6_bus_SZ:1" type="pt_bus" depart="28.0" departLane="best" from="560538898#1" to="-26944682#0">
        <stop busStop="-6160787431" duration="30"/>
    </trip>
    <trip id="7_bus_Modern_Jeepney_4NN:_Gil_Puyat_→_PITX:0" type="pt_bus" depart="47.0" departLane="best" from="671028136" to="644424828">
        <stop busStop="4714817932" duration="30"/>
        <stop busStop="4714817931" duration="30"/>
        <stop busStop="4714817928" duration="30"/>
        <stop busStop="6054194095" duration="30"/>
    </trip>
    <trip id="8_bus_1:0" type="pt_bus" depart="52.0" departLane="best" from="156780902#5" to="644424828">
    </trip>
    <trip id="9_bus_31D:0" type="pt_bus" depart="54.0" departLane="best" from="646591010" to="-26944682#0">
        <stop busStop="5355789162" duration="30"/>
        <stop busStop="7674694074" duration="30"/>
    </trip>
    <trip id="10_bus_NDTSC_Jeepney:_Intra-DBB_Route_(C→G_Anticlockwise_Loop):0" type="pt_bus" depart="55.0" departLane="best" from="726977479" to="872732747#1">
        <stop busStop="5564014454" duration="30"/>
        <stop busStop="5520537026" duration="30"/>
        <stop busStop="5416556655" duration="30"/>
        <stop busStop="5580120051" duration="30"/>
        <stop busStop="6829323046" duration="30"/>
        <stop busStop="5395917506" duration="30"/>
        <stop busStop="5263012043" duration="30"/>
    </trip>
    <trip id="11_bus_5:0" type="pt_bus" depart="58.0" departLane="best" from="646591010" to="20828108">
        <stop busStop="6367409392" duration="30"/>
    </trip>
    <trip id="12_bus_T427:0" type="pt_bus" depart="60.0" departLane="best" from="564378177#0" to="638437006">
        <stop busStop="9691921084" duration="30"/>
    </trip>
    <trip id="13_light_rail_1:1" type="pt_light_rail" depart="65.0" departLane="best" from="784669682#0" to="784669682#4">
        <stop busStop="5191404472" duration="30"/>
        <stop busStop="5191404473" duration="30"/>
        <stop busStop="5191404474" duration="30"/>
        <stop busStop="5191404476" duration="30"/>
        <stop busStop="5191404477" duration="30"/>
        <stop busStop="5191404478" duration="30"/>
        <stop busStop="5191404479" duration="30"/>
        <stop busStop="5191404480" duration="30"/>
        <stop busStop="7330612086" duration="30"/>
        <stop busStop="5191404483" duration="30"/>
        <stop busStop="5191404484" duration="30"/>
        <stop busStop="5191404485" duration="30"/>
        <stop busStop="5191404486" duration="30"/>
        <stop busStop="4475471874" duration="30"/>
        <stop busStop="4475471875" duration="30"/>
        <stop busStop="34012374" duration="30"/>
    </trip>
    <trip id="14_light_rail_1:2" type="pt_light_rail" depart="93.0" departLane="best" from="809323011" to="576201878#4">
        <stop busStop="5527137132" duration="30"/>
        <stop busStop="7330612087" duration="30"/>
        <stop busStop="7569408464" duration="30"/>
        <stop busStop="7569408465" duration="30"/>
        <stop busStop="7569408466" duration="30"/>
        <stop busStop="7569408467" duration="30"/>
        <stop busStop="7569408470" duration="30"/>
        <stop busStop="7569408477" duration="30"/>
        <stop busStop="7569408478" duration="30"/>
    </trip>
    <trip id="15_bus_NDTSC_Jeepney:_Intra-DBB_Route_(C→G_Clockwise_Loop):0" type="pt_bus" depart="98.0" departLane="best" from="726977479" to="872732747#1">
        <stop busStop="5564014454" duration="30"/>
        <stop busStop="5520537026" duration="30"/>
        <stop busStop="5416556655" duration="30"/>
        <stop busStop="5580120051" duration="30"/>
        <stop busStop="6829323046" duration="30"/>
        <stop busStop="5395917506" duration="30"/>
        <stop busStop="5263012043" duration="30"/>
    </trip>
    <trip id="16_bus_MetroExpress_Modern_Jeepney:_SoMo_→_Vista_Mall_Kawit:0" type="pt_bus" depart="102.0" departLane="best" from="134126592#0" to="134126592#0">
        <stop busStop="10673347232" duration="30"/>
    </trip>
    <trip id="17_bus_MetroExpress_Modern_Jeepney:_SoMo_→_Vista_Mall_General_Trias:0" type="pt_bus" depart="119.0" departLane="best" from="561748200" to="573710378">
        <stop busStop="10673347232" duration="30"/>
    </trip>
    <trip id="18_bus_MetroExpress_Modern_Jeepney:_Vista_Mall_General_Trias_→_SoMo:0" type="pt_bus" depart="125.0" departLane="best" from="544473026" to="561748200">
        <stop busStop="7081968088" duration="30"/>
    </trip>
    <trip id="19_bus_MetroExpress_Modern_Jeepney:_Vista_Mall_Kawit_→_SoMo:0" type="pt_bus" depart="126.0" departLane="best" from="544473026" to="561748200">
        <stop busStop="7081968088" duration="30"/>
    </trip>
    <trip id="20_bus_Filcab:_The_District_Imus_→_The_District_Dasmariñas:0" type="pt_bus" depart="131.0" departLane="best" from="544473026" to="574917574#2">
        <stop busStop="7081968088" duration="30"/>
    </trip>
    <trip id="21_bus_30:0" type="pt_bus" depart="131.0" departLane="best" from="646591010" to="238193048#8">
        <stop busStop="6367409392" duration="30"/>
    </trip>
    <trip id="22_bus_NDTSC_Jeepney:_Intra-DBB_Route_(D→G_Anticlockwise_Loop):0" type="pt_bus" depart="132.0" departLane="best" from="556852190#0" to="575278501#4">
        <stop busStop="5564014454" duration="30"/>
        <stop busStop="5520537026" duration="30"/>
        <stop busStop="5416556655" duration="30"/>
        <stop busStop="5580120051" duration="30"/>
        <stop busStop="6829323046" duration="30"/>
        <stop busStop="5395917506" duration="30"/>
        <stop busStop="5263012043" duration="30"/>
    </trip>
    <trip id="23_bus_DA:0" type="pt_bus" depart="133.0" departLane="best" from="564378177#0" to="573710378">
        <stop busStop="9691921084" duration="30"/>
    </trip>
    <trip id="24_bus_DA:1" type="pt_bus" depart="136.0" departLane="best" from="544473026" to="658739766">
        <stop busStop="7081968088" duration="30"/>
    </trip>
    <trip id="25_train_MSC:0" type="pt_train" depart="137.0" departLane="best" from="26601253" to="370439164#11">
        <stop busStop="291723598" duration="30"/>
        <stop busStop="709610674" duration="30"/>
        <stop busStop="414567788" duration="30"/>
        <stop busStop="358845695" duration="30"/>
        <stop busStop="3004596316" duration="30"/>
    </trip>
    <trip id="26_train_MSC:1" type="pt_train" depart="139.0" departLane="best" from="370439173#0" to="801444517#1">
        <stop busStop="3729120759" duration="30"/>
        <stop busStop="3741382299" duration="30"/>
        <stop busStop="3741382298" duration="30"/>
        <stop busStop="3741382296" duration="30"/>
        <stop busStop="3741382297" duration="30"/>
    </trip>
    <trip id="27_light_rail_1:3" type="pt_light_rail" depart="147.0" departLane="best" from="784669682#0" to="784669682#4">
        <stop busStop="5191404471" duration="30"/>
        <stop busStop="5191404472" duration="30"/>
        <stop busStop="5191404473" duration="30"/>
        <stop busStop="5191404474" duration="30"/>
        <stop busStop="5191404476" duration="30"/>
        <stop busStop="5191404477" duration="30"/>
        <stop busStop="5191404478" duration="30"/>
        <stop busStop="5191404479" duration="30"/>
        <stop busStop="5191404480" duration="30"/>
        <stop busStop="7330612086" duration="30"/>
        <stop busStop="5191404483" duration="30"/>
        <stop busStop="5191404484" duration="30"/>
        <stop busStop="5191404485" duration="30"/>
        <stop busStop="5191404486" duration="30"/>
        <stop busStop="4475471874" duration="30"/>
        <stop busStop="4475471875" duration="30"/>
        <stop busStop="34012374" duration="30"/>
    </trip>
    <trip id="28_bus_408:0" type="pt_bus" depart="157.0" departLane="best" from="-834008930" to="23296802">
        <stop busStop="7785509614" duration="30"/>
    </trip>
    <trip id="29_bus_T378:0" type="pt_bus" depart="158.0" departLane="best" from="20821692" to="666471113">
        <stop busStop="5799534216" duration="30"/>
    </trip>
    <trip id="30_bus_30:1" type="pt_bus" depart="160.0" departLane="best" from="405848435" to="644424828">
        <stop busStop="9398002684" duration="30"/>
    </trip>
    <trip id="32_bus_Minibus:_Central_Mall_Dasmariñas_→_SaveMore_San_Marino:0" type="pt_bus" depart="165.0" departLane="best" from="630495183" to="574917539#1">
        <stop busStop="6534636041" duration="30"/>
        <stop busStop="8176877281" duration="30"/>
    </trip>
    <trip id="33_bus_49:0" type="pt_bus" depart="166.0" departLane="best" from="333019441#0" to="20828108">
        <stop busStop="3239350019" duration="30"/>
    </trip>
    <trip id="34_bus_35:0" type="pt_bus" depart="173.0" departLane="best" from="333019441#0" to="22740019">
        <stop busStop="3239350019" duration="30"/>
    </trip>
    <trip id="35_bus_T326:0" type="pt_bus" depart="188.0" departLane="best" from="806562809#0" to="130576792#4">
        <stop busStop="1437699084" duration="30"/>
    </trip>
    <trip id="36_bus_6:0" type="pt_bus" depart="189.0" departLane="best" from="18578428#0" to="644424828">
        <stop busStop="8506128588" duration="30"/>
    </trip>
    <trip id="37_bus_6N:0" type="pt_bus" depart="201.0" departLane="best" from="646591010" to="20828108">
        <stop busStop="6367409392" duration="30"/>
    </trip>
    <trip id="38_bus_423:0" type="pt_bus" depart="204.0" departLane="best" from="933981302" to="734355084#1">
        <stop busStop="7179207937" duration="30"/>
    </trip>
    <trip id="39_ferry_PRFS_Guadelupe_→_Escolta:0" type="pt_ferry" depart="218.0" departLane="best" from="1009724795" to="1008893904">
        <stop busStop="5936202472" duration="30"/>
        <stop busStop="5936202473" duration="30"/>
        <stop busStop="10917227317" duration="30"/>
        <stop busStop="7324832748" duration="30"/>
    </trip>
    <trip id="40_ferry_PRFS_Pinagbuhatan_→_Escolta:0" type="pt_ferry" depart="222.0" departLane="best" from="1009724795" to="1008893904">
        <stop busStop="5936202472" duration="30"/>
        <stop busStop="5936202473" duration="30"/>
        <stop busStop="10917227317" duration="30"/>
        <stop busStop="7324832748" duration="30"/>
    </trip>
    <trip id="41_bus_Baguio_Pasay_Express:0" type="pt_bus" depart="227.0" departLane="best" from="514213981" to="1176763754">
        <stop busStop="255067127" duration="30"/>
    </trip>
    <trip id="42_bus_Pasay_Baguio_Express:0" type="pt_bus" depart="227.0" departLane="best" from="-1176763754" to="784737614">
        <stop busStop="-255067127" duration="30"/>
    </trip>
    <trip id="44_bus_Baguio_Pasay_Inner_City:0" type="pt_bus" depart="239.0" departLane="best" from="514213981" to="1176763754">
        <stop busStop="255067127" duration="30"/>
    </trip>
    <trip id="45_bus_Pasay_Baguio_Inner_City:0" type="pt_bus" depart="253.0" departLane="best" from="-1176763754" to="784737614">
        <stop busStop="-255067127" duration="30"/>
    </trip>
    <trip id="46_bus_31:0" type="pt_bus" depart="275.0" departLane="best" from="26944682#11" to="26944682#11">
        <stop busStop="7674694069" duration="30"/>
    </trip>
    <trip id="47_bus_BEEP:_PITX-Baclaran_Loop:0" type="pt_bus" depart="303.0" departLane="best" from="645337993#0" to="644424828">
        <stop busStop="7179207937" duration="30"/>
    </trip>
    <trip id="48_bus_T326:1" type="pt_bus" depart="305.0" departLane="best" from="806562809#0" to="526957115#3">
        <stop busStop="1437699084" duration="30"/>
    </trip>
    <trip id="49_train_MSC_1908+_MSC_2008:0" type="pt_train" depart="321.0" departLane="best" from="26601253" to="370439164#11">
        <stop busStop="291723598" duration="30"/>
        <stop busStop="709610674" duration="30"/>
        <stop busStop="414567788" duration="30"/>
        <stop busStop="358845695" duration="30"/>
        <stop busStop="3004596316" duration="30"/>
    </trip>
    <trip id="50_train_MSC:2" type="pt_train" depart="326.0" departLane="best" from="370439173#0" to="801444517#1">
        <stop busStop="3729120759" duration="30"/>
        <stop busStop="3741382299" duration="30"/>
        <stop busStop="3741382298" duration="30"/>
        <stop busStop="3741382296" duration="30"/>
        <stop busStop="3741382297" duration="30"/>
    </trip>
    <trip id="51_light_rail_1:4" type="pt_light_rail" depart="331.0" departLane="best" from="809323011" to="576201878#4">
        <stop busStop="5527137132" duration="30"/>
        <stop busStop="10053766609" duration="30"/>
        <stop busStop="10053766608" duration="30"/>
        <stop busStop="10053766607" duration="30"/>
        <stop busStop="10053766606" duration="30"/>
        <stop busStop="10053766605" duration="30"/>
        <stop busStop="10053766604" duration="30"/>
        <stop busStop="7330612087" duration="30"/>
        <stop busStop="7569408464" duration="30"/>
        <stop busStop="7569408465" duration="30"/>
        <stop busStop="7569408466" duration="30"/>
        <stop busStop="7569408467" duration="30"/>
        <stop busStop="7569408470" duration="30"/>
        <stop busStop="7569408477" duration="30"/>
        <stop busStop="7569408478" duration="30"/>
        <stop busStop="7569408480" duration="30"/>
    </trip>
    <trip id="52_bus_27:0" type="pt_bus" depart="334.0" departLane="best" from="26944682#0" to="644424828">
        <stop busStop="7674694069" duration="30"/>
    </trip>
    <trip id="53_bus_14:0" type="pt_bus" depart="336.0" departLane="best" from="646591010" to="20828108">
        <stop busStop="10151210370" duration="30"/>
        <stop busStop="9399175811" duration="30"/>
    </trip>
    <trip id="54_bus_NDTSC_Jeepney:_Intra-DBB_Route_(D→G_Clockwise_Loop):0" type="pt_bus" depart="346.0" departLane="best" from="556852190#0" to="575278501#4">
        <stop busStop="5564014454" duration="30"/>
        <stop busStop="5520537026" duration="30"/>
        <stop busStop="5416556655" duration="30"/>
        <stop busStop="5580120051" duration="30"/>
        <stop busStop="6829323046" duration="30"/>
        <stop busStop="5395917506" duration="30"/>
        <stop busStop="5263012043" duration="30"/>
    </trip>
    <trip id="55_bus_PASIJODAI/MPTC/ZIDGPPTC_Jeepney:_Paliparan_Site_→_Downtown/Bayan:0" type="pt_bus" depart="350.0" departLane="best" from="-591214872" to="704723674">
        <stop busStop="-325785397" duration="30"/>
        <stop busStop="-5558817863" duration="30"/>
        <stop busStop="5558817864" duration="30"/>
        <stop busStop="5940502424" duration="30"/>
        <stop busStop="6621606387" duration="30"/>
        <stop busStop="6149150548" duration="30"/>
    </trip>
    <trip id="56_bus_27:1" type="pt_bus" depart="353.0" departLane="best" from="646591010" to="-26944682#0">
        <stop busStop="5355789162" duration="30"/>
        <stop busStop="7674694074" duration="30"/>
    </trip>
    <trip id="57_bus_5:1" type="pt_bus" depart="362.0" departLane="best" from="18578428#0" to="644424828">
        <stop busStop="1918134259" duration="30"/>
        <stop busStop="8506128588" duration="30"/>
    </trip>
    <trip id="58_bus_NDTSC_Jeepney:_Intra-DBB_Route_(D→1_Loop):0" type="pt_bus" depart="365.0" departLane="best" from="556852190#0" to="575278501#4">
        <stop busStop="5564014454" duration="30"/>
        <stop busStop="5520537026" duration="30"/>
        <stop busStop="5416556655" duration="30"/>
        <stop busStop="5580120051" duration="30"/>
        <stop busStop="6829323046" duration="30"/>
        <stop busStop="5395917506" duration="30"/>
        <stop busStop="5263012043" duration="30"/>
    </trip>
    <trip id="59_bus_409:0" type="pt_bus" depart="371.0" departLane="best" from="544473026" to="652446854">
        <stop busStop="7081968088" duration="30"/>
    </trip>
    <trip id="60_bus_Laguna_Route:0" type="pt_bus" depart="376.0" departLane="best" from="764520128" to="132908048#1">
        <stop busStop="3076605484" duration="30"/>
        <stop busStop="3076115401" duration="30"/>
        <stop busStop="6542684204" duration="30"/>
    </trip>
    <trip id="61_bus_29:0" type="pt_bus" depart="381.0" departLane="best" from="646591010" to="-26944682#0">
        <stop busStop="5355789162" duration="30"/>
        <stop busStop="7674694074" duration="30"/>
    </trip>
    <trip id="62_train_SS:1" type="pt_train" depart="383.0" departLane="best" from="370439165#1" to="370439165#1">
        <stop busStop="709610674" duration="30"/>
    </trip>
    <trip id="63_bus_Minibus:_SaveMore_San_Marino_→_Central_Mall_Dasmariñas:0" type="pt_bus" depart="383.0" departLane="best" from="574917539#1" to="544489104">
        <stop busStop="9849403598" duration="30"/>
        <stop busStop="1294039033" duration="30"/>
        <stop busStop="28997041" duration="30"/>
        <stop busStop="6232347702" duration="30"/>
        <stop busStop="6534636042" duration="30"/>
        <stop busStop="7081949859" duration="30"/>
    </trip>
    <trip id="64_bus_29:1" type="pt_bus" depart="388.0" departLane="best" from="26944682#0" to="644424828">
        <stop busStop="7674694069" duration="30"/>
    </trip>
    <trip id="65_bus_32:0" type="pt_bus" depart="389.0" departLane="best" from="646591010" to="579386443#1">
        <stop busStop="5355789162" duration="30"/>
        <stop busStop="7674694074" duration="30"/>
    </trip>
    <trip id="66_bus_32:1" type="pt_bus" depart="393.0" departLane="best" from="1088187929#0" to="644424828">
        <stop busStop="1044540481" duration="30"/>
        <stop busStop="9849403598" duration="30"/>
        <stop busStop="1294039033" duration="30"/>
        <stop busStop="28997041" duration="30"/>
    </trip>
    <trip id="67_bus_31D:1" type="pt_bus" depart="406.0" departLane="best" from="26944682#0" to="644424828">
        <stop busStop="7674694069" duration="30"/>
    </trip>
    <trip id="68_ferry_PRFS_Escolta_→_Pinagbuhatan:0" type="pt_ferry" depart="410.0" departLane="best" from="1008893904" to="1009724795">
        <stop busStop="7324832748" duration="30"/>
        <stop busStop="10917227317" duration="30"/>
        <stop busStop="5936202473" duration="30"/>
        <stop busStop="5936202472" duration="30"/>
    </trip>
    <trip id="69_bus_PASIJODAI/MPTC/ZIDGPPTC_Jeepney:_Downtown/Bayan_→_Paliparan_Site:0" type="pt_bus" depart="418.0" departLane="best" from="544331555" to="591214872">
        <stop busStop="6470313441" duration="30"/>
        <stop busStop="5558817864" duration="30"/>
        <stop busStop="5558817863" duration="30"/>
        <stop busStop="325785397" duration="30"/>
        <stop busStop="5558817862" duration="30"/>
    </trip>
    <trip id="70_bus_NDTSC_Jeepney:_Intra-DBB_Route_(C→1_Loop):0" type="pt_bus" depart="422.0" departLane="best" from="726977479" to="872732747#1">
        <stop busStop="5564014454" duration="30"/>
        <stop busStop="5520537026" duration="30"/>
        <stop busStop="5416556655" duration="30"/>
        <stop busStop="5580120051" duration="30"/>
        <stop busStop="6829323046" duration="30"/>
        <stop busStop="5395917506" duration="30"/>
        <stop busStop="5263012043" duration="30"/>
    </trip>
    <trip id="71_bus_403:0" type="pt_bus" depart="437.0" departLane="best" from="645337993#0" to="676717184#5">
        <stop busStop="4714817925" duration="30"/>
        <stop busStop="4714817922" duration="30"/>
    </trip>
    <trip id="72_bus_CALABARZON/TMC_Filcab:_WalterMart_Trece_Martires_→_SM_Molino:0" type="pt_bus" depart="437.0" departLane="best" from="544473026" to="638437006">
        <stop busStop="7081968088" duration="30"/>
    </trip>
    <trip id="73_bus_Laguna_Route:1" type="pt_bus" depart="441.0" departLane="best" from="764520128" to="132908048#1">
        <stop busStop="3076605484" duration="30"/>
        <stop busStop="3076115401" duration="30"/>
        <stop busStop="6542684204" duration="30"/>
    </trip>
    <trip id="74_bus_417:0" type="pt_bus" depart="465.0" departLane="best" from="91631014#0" to="644424828">
        <stop busStop="1294039033" duration="30"/>
        <stop busStop="28997041" duration="30"/>
    </trip>
    <trip id="75_bus_MetroExpress_Shuttle:_Camella_Homes_Daang_Hari_Loop:0" type="pt_bus" depart="483.0" departLane="best" from="561748200" to="561748195">
        <stop busStop="5534125936" duration="30"/>
    </trip>
    <trip id="76_bus_NDTSC_Jeepney:_WalterMart_Dasmariñas_→_DBB-C:0" type="pt_bus" depart="484.0" departLane="best" from="52977451" to="872732747#1">
        <stop busStop="5416556656" duration="30"/>
        <stop busStop="5585400846" duration="30"/>
        <stop busStop="6829233694" duration="30"/>
        <stop busStop="5580120050" duration="30"/>
        <stop busStop="6829233695" duration="30"/>
        <stop busStop="5416556654" duration="30"/>
    </trip>
    <trip id="77_bus_417:1" type="pt_bus" depart="485.0" departLane="best" from="646591010" to="91631014#8">
        <stop busStop="5355789162" duration="30"/>
        <stop busStop="7674694074" duration="30"/>
    </trip>
    <trip id="78_bus_23:0" type="pt_bus" depart="497.0" departLane="best" from="242856791#0" to="1087385309#2">
        <stop busStop="7857751352" duration="30"/>
    </trip>
    <trip id="79_bus_4:0" type="pt_bus" depart="505.0" departLane="best" from="646591010" to="56706910#1">
        <stop busStop="10151210370" duration="30"/>
        <stop busStop="9399175811" duration="30"/>
    </trip>
    <trip id="80_bus_403:1" type="pt_bus" depart="508.0" departLane="best" from="933310892#0" to="644424828">
        <stop busStop="10023059760" duration="30"/>
    </trip>
    <trip id="81_train_MSC_621+_MSC_711:0" type="pt_train" depart="517.0" departLane="best" from="370439173#0" to="801444517#1">
        <stop busStop="3729120759" duration="30"/>
        <stop busStop="3741382299" duration="30"/>
        <stop busStop="3741382298" duration="30"/>
        <stop busStop="3741382296" duration="30"/>
        <stop busStop="3741382297" duration="30"/>
    </trip>
    <trip id="82_train_MSC:3" type="pt_train" depart="525.0" departLane="best" from="26601253" to="370439164#11">
        <stop busStop="291723598" duration="30"/>
        <stop busStop="709610674" duration="30"/>
        <stop busStop="414567788" duration="30"/>
        <stop busStop="358845695" duration="30"/>
        <stop busStop="3004596316" duration="30"/>
    </trip>
    <trip id="83_bus_312:0" type="pt_bus" depart="535.0" departLane="best" from="1087385309#2" to="644424828">
        <stop busStop="5799534216" duration="30"/>
    </trip>
    <trip id="84_bus_SZ:2" type="pt_bus" depart="538.0" departLane="best" from="560538898#1" to="-26944682#0">
        <stop busStop="-6160787431" duration="30"/>
    </trip>
    <trip id="85_bus_SZ:3" type="pt_bus" depart="548.0" departLane="best" from="26944682#0" to="245313306#3">
        <stop busStop="7674694069" duration="30"/>
    </trip>
    <trip id="86_bus_NDTSC_Jeepney:_DBB-C_→_WalterMart_Dasmariñas:0" type="pt_bus" depart="561.0" departLane="best" from="-544442724#1" to="544447258">
        <stop busStop="5564014454" duration="30"/>
        <stop busStop="5520537026" duration="30"/>
        <stop busStop="5416556655" duration="30"/>
        <stop busStop="5580120051" duration="30"/>
        <stop busStop="6829323046" duration="30"/>
        <stop busStop="5395917506" duration="30"/>
        <stop busStop="5416556657" duration="30"/>
    </trip>
    <trip id="87_bus_1:5" type="pt_bus" depart="565.0" departLane="best" from="645337993#0" to="22761597#3">
        <stop busStop="10151210370" duration="30"/>
    </trip>
    <trip id="88_bus_7:0" type="pt_bus" depart="574.0" departLane="best" from="646591010" to="20828108">
        <stop busStop="6367409392" duration="30"/>
    </trip>
    <trip id="89_bus_6:1" type="pt_bus" depart="583.0" departLane="best" from="646591010" to="20828108">
        <stop busStop="6367409392" duration="30"/>
    </trip>
    <trip id="90_bus_6:2" type="pt_bus" depart="593.0" departLane="best" from="18578428#0" to="644424828">
        <stop busStop="8506128588" duration="30"/>
    </trip>
    <trip id="91_bus_43:0" type="pt_bus" depart="598.0" departLane="best" from="646591010" to="734355084#1">
        <stop busStop="3239350019" duration="30"/>
    </trip>
</routes>
